SSGVDTQS 0
ILDSFEPL 0
NTYLYDHL 0
QGYNVLVL 0
VKYVGATT 0
VWRGDGVM 0
VIFSPMEI 0
DSLNTGFI 0
PPAVPQSY 0
TASIRSHV 0
WEFVVLVF 0
CPCQVPAA 0
RPPGGRWF 0
GGEFPTAE 0
EPEAKKVI 0
SGEDSATL 0
QGLNFSYL 0
AWSGEDSA 0
TVGSSSAS 0
QVWVPPLL 0
WWNQYTIC 0
PSWDEMWK 0
RSQPRERR 0
TYSVTPLD 0
QVPAAEFF 0
SCLIHPAA 0
LDSFEPLR 0
LTYSTYGK 0
LGPVQNET 0
SFPSSEPR 0
VLGLLQRA 0
ECSQAAPY 0
VAQGYNVL 0
LSTQARSP 0
KGVWRGDG 0
THRPHPDA 0
IILSVGRW 0
GAPPCNIY 0
TQARSPSF 0
PLLRDEIT 0
QAQAIAHQ 0
VRSVMGGK 0
CTCGSADL 0
RLPQTLFD 0
SPCSGDWL 0
ACALVPPH 0
QMIILSVG 0
PSPGGESD 0
RWKAPDYE 0
TVPHSNIE 0
GFEHRFTA 0
ASATRGIT 0
PPGGRWFG 0
DPNIRTGN 0
GGKYFQMI 0
KYVGATTA 0
LRPPGGRW 0
LFCPTDCF 0
VATNWQKL 0
VVFCAAWH 0
RRKRTIQL 0
MAFTASVT 0
LGSEGEIP 0
FPTAEDMV 0
HVLRLPQT 0
FWHKHMWN 0
ATEDGLKC 0
GVWRGDGV 0
KKPPKYPP 0
AAYVAQGY 0
APTYTWGE 0
DVIICDEC 0
GNWAKVAI 0
EIASKLRG 0
LAGPQSSS 0
GMVVAHVL 0
PCETVKAS 0
AQGYNVLV 0
FCVDPVKG 0
AYVAQGYN 0
PDLSCDSW 0
CGASIAGH 0
KRTIQLDG 0
QPAETTVR 0
DIIAGAHW 0
LRKLGCPP 0
SDLFCPTD 0
QYSPQQRV 0
WSGEDSAT 0
EDLLEDTT 0
TYFRQGWG 0
TGLFSPGS 0
ITGATEDG 0
TASLLSPR 0
RKTKRNTI 0
GSRTLAGV 0
ITRVESET 0
NFSYLTAY 0
IEQAQAIA 0
CDIEDRDR 0
SALYVGDM 0
EKSFPSSE 0
PVTPTVAV 0
AGIFRAAV 0
LTIEEACA 0
EECSQAAP 0
HWAAAGLK 0
LTGHRMAW 0
TFRPRRHQ 0
ITVPHSNI 0
LAAYCLSV 0
CPQRLSSC 0
ITPCSAEE 0
MSTRCPCG 0
LYPGHLTG 0
AGAHWGIL 0
EQDIRVEE 0
WINEDYPS 0
IKATAAAR 0
DLLEDTTT 0
LQLVNTNG 0
PTFSIETR 0
RLKPTLHG 0
FTFRPRRH 0
PEAKKVIS 0
GWYLVVFC 0
APPPSWDE 0
SVFTGLTH 0
PSTPCPSL 0
LPFISCQK 0
LWRVAANS 0
LAEKSFPS 0
FTASVTSP 0
IMPALPGL 0
QRVERLLK 0
DARVCVAL 0
GGAYDVII 0
FGNTITCY 0
PQDAVSRS 0
AAIGGVGL 0
VYSTSSRS 0
LEDTTTPI 0
HYITGATE 0
AATMCSAL 0
CNLEPEAK 0
KAVNQIRS 0
KATAAARA 0
QTHRPHPD 0
NFTLFKMR 0
SSAFVVSG 0
FLSQTKQQ 0
SRPSWGPN 0
LDILAGYG 0
SMQGNWAK 0
IQLDGSNV 0
PMPALSTG 0
DHLAPMQH 0
QSSSAFVV 0
STTELAIL 0
LYQQYDEM 0
SPWYKHWI 0
GPVMCPSG 0
FDIIAGAH 0
EPPTVHGC 0
QTLFFNIL 0
HNLVYSTS 0
FEHRFTAA 0
PAPPGAKS 0
NESDLFCP 0
RDGVILLT 0
PDKEVLYQ 0
TRGERCDI 0
RLCMLVRS 0
PRGAPPVP 0
VGGVARAL 0
GVGSGMVG 0
RATLRAFT 0
IYGGGGST 0
KLRGMGLN 0
RVKARMLT 0
MSRAYGID 0
LDDHYKTA 0
KRYYYLTR 0
LCGLPVSA 0
PGSRQNLQ 0
PLTTNQTL 0
HGCALPPR 0
GATYSVTP 0
NETCLTHP 0
TCNCSLYP 0
SYAIGSQL 0
PIVATNWQ 0
TAEDMVNL 0
AEKSFPSS 0
LITSCSSN 0
YDEMEECS 0
GKYFQMII 0
PPGSITVP 0
RAQAPPPS 0
HWIGRLMW 0
NQIRSVWE 0
RGITGLFS 0
YPSPCSGD 0
KGYKGVWR 0
IQAAITTT 0
AGHVKNGS 0
DFWESVFT 0
TKRNTIRR 0
KASSVCGP 0
RGERCDIE 0
RHQTVQTC 0
CGGPMFNS 0
FSLDPTFS 0
PAASLEWR 0
AVIEPIVA 0
FVGGFEHR 0
EACALVPP 0
TCGSADLY 0
VRRVGDFH 0
LSVAAECF 0
VALWLMLM 0
TNQTLFFN 0
YLTRDATT 0
QGWGPLTD 0
AIGGVGLG 0
ILAGLAYY 0
RLGREVLL 0
CQVPAAEF 0
VVAHVLRL 0
LHTPGCIP 0
VTSLLRRL 0
RTVTTGAK 0
EWRNTSGL 0
GPLTDANI 0
EFPTAEDM 0
QKLSTATM 0
NWAKVAII 0
AIGSQLPC 0
GDILCGLP 0
LEAFWHKH 0
KTALKEVK 0
SGVDAVTH 0
YNVLVLNP 0
PFISCQKG 0
FSPGSRQN 0
TFVGGFEH 0
EDTTTPIP 0
GSADLYLV 0
TTPIPTTI 0
DGVILLTS 0
GERCDIED 0
VRMVMMTH 0
GGGSTSNE 0
GRDKNVVT 0
TPYFVRAH 0
VTTSTWVL 0
PPKYPPAL 0
LYRLGPVQ 0
RTFVGGFE 0
RAYLSTPG 0
TRCPCGAS 0
CEAALQVW 0
LMLMISQA 0
AALQVWVP 0
SLNYTRAL 0
RSHVDLLV 0
ALGSEGEI 0
PVIFSPME 0
GGVYVLPR 0
WDWVCIML 0
PRTCANMW 0
WLRTIWDW 0
PLTDANIT 0
MLTIEEAC 0
SESCSSMP 0
ESVFTGLT 0
SYVEVRRV 0
TCWTPVTP 0
KSLEPCTC 0
LGAGVLAL 0
FISCQKGY 0
ALITPCSA 0
RCEAALQV 0
LPIWARPD 0
EVFCVDPV 0
YREMGWRL 0
ALQVWVPP 0
CKPITYFR 0
VVLVFLLL 0
DANITGPS 0
DTQSSTAS 0
PLRAETDD 0
CFKKPPKY 0
AFTFRPRR 0
NVAVEQYV 0
AGLFYYHK 0
RLTVLATA 0
QTVQTCNC 0
SLEPCTCG 0
MCGAVFLV 0
VLVFLLLA 0
LFKMRTFV 0
FCAAWHVR 0
SGGPVMCP 0
TVKASSVC 0
TYLYDHLA 0
LRDEITFM 0
DNSTPPAV 0
CGLPVSAR 0
ESCSSMPP 0
HMWNFVSG 0
SGGAYDVI 0
TASVTSPL 0
LVGQAFTF 0
PSPCSGDW 0
TSGLYVLT 0
AVPQSYQV 0
SYSPVELN 0
ACLKGSSG 0
TVAVKYVG 0
GYKGVWRG 0
YKTALKEV 0
VPLITYSL 0
VRLKPTLH 0
AGTHGIGW 0
IAHQFKEK 0
TLHSYSPV 0
VLTSMLRD 0
ARMLTIEE 0
SCKPITYF 0
QLVNTNGS 0
HPEATYSR 0
RDADVIPA 0
NPAVASLM 0
GGRWFGCT 0
HQWINEDY 0
LSPRPLAC 0
DYPSPCSG 0
RVLLDILA 0
NCDDSLNT 0
ITFMVGLN 0
DFLVCGDD 0
GCALPPRG 0
TGEVQVLS 0
WAAAGLKD 0
APVGGVAR 0
CGAVFLVG 0
TLRAFTEA 0
TTTPIPTT 0
TSPLTTNQ 0
LDFWESVF 0
YKHWIGRL 0
GIGWYLVV 0
LVVFCAAW 0
WEDLLEDT 0
PTVAVKYV 0
MLSDFKTW 0
ESDLFCPT 0
ATYSVTPL 0
FYGKAIPI 0
LVDANLLW 0
PQSSSAFV 0
GRVLLDIL 0
DGNKTTCW 0
GGFEHRFT 0
CLIHPAAS 0
FLLALFSC 0
LITPCSAE 0
STWVLLGG 0
VLVRLCML 0
LAALAEKS 0
TPGERPSG 0
IASKLRGM 0
SRTLAGVK 0
LCMLVRSV 0
LTSLLYPS 0
EAALQVWV 0
RTLAGVKH 0
LAPMQHWA 0
NQYTICRC 0
TSKKTPLG 0
MVGWALKW 0
VCVALWLM 0
YFRQGWGP 0
TDAKGAPT 0
CDEIASKL 0
GILAGLAY 0
HLTGHRMA 0
YSTSSRSA 0
RNTSGLYV 0
YSMQGNWA 0
RKLGCPPL 0
AKIMPALP 0
VKASSVCG 0
AIAHQFKE 0
FTAACNWT 0
ATQQQAVI 0
TPGCIPCV 0
AQAPPPSW 0
PPSWDEMW 0
SQTKQQGL 0
MLRDPSHI 0
LITYSLTG 0
GLRNPDFL 0
HSTTELAI 0
GINFATGN 0
LMISQAEA 0
PPSPGGES 0
QTLFDIIA 0
TVQTCNCS 0
WKAPDYEP 0
SAGDVVVC 0
IFSPMEIK 0
ARLGREVL 0
PRERRQPI 0
VAHVLRLP 0
PLYLIQAA 0
VGDFHYIT 0
SFSDNSTP 0
QRLSSCKP 0
RAAGLRNP 0
RLLKMWTS 0
CNVAVEQY 0
FVRAHVLV 0
RAETDDAE 0
DKPYCWHY 0
LQVWVPPL 0
SKLRGMGL 0
YLIQAAIT 0
LEPCTCGS 0
VGTTDAKG 0
YGTFPINE 0
PQTLFDII 0
ILDRPLDF 0
KALQFIPV 0
HWGILAGL 0
MSADLEVT 0
SSEPRGED 0
AGLRNPDF 0
PPPSWDEM 0
GAPTYTWG 0
CNCSLYPG 0
GLNFSYLT 0
PAVGMVVA 0
TPVTPTVA 0
LVRLCMLV 0
MGGEFPTA 0
LRLPQTLF 0
APPGAKSL 0
KEKVLGLL 0
GYNVLVLN 0
NQTLFFNI 0
GCIPCVQD 0
QDAVSRSQ 0
SNVSAALA 0
ARDNEGKR 0
DFEMYGAT 0
HYPPRPCE 0
STPCPSLN 0
SPGSRQNL 0
IMYAPTIW 0
STVSDNEE 0
NRTVTTGA 0
TGNRTVTT 0
ATPPGSIT 0
TWLSAKIM 0
HRFTAACN 0
RERRQPIP 0
TFMVGLNS 0
NKTTCWTP 0
AVGMVVAH 0
VTGEVQVL 0
PGSITVPH 0
ELVDANLL 0
SGVDTQSS 0
LYLIQAAI 0
TPCSAEEE 0
AYAWSGED 0
SMLRDPSH 0
PVMCPSGH 0
ITYFRQGW 0
EATYSRCG 0
VDANLLWR 0
WPAPPGAK 0
LSVGRWFN 0
CSGDWLRT 0
SSTASKVP 0
FTLHSYSP 0
THTVGSSS 0
FRPRRHQT 0
SKKKCDEI 0
DADVIPAR 0
LQFIPVET 0
CAAWHVRG 0
HTVGSSSA 0
GVLALFGF 0
RRHQTVQT 0
DDYREMGW 0
ADLEVTTS 0
LKPTLHGP 0
DHYKTALK 0
QTFLGTTV 0
EPRGEDSS 0
TCANMWYG 0
YNPPLLDR 0
AAGLRNPD 0
EVRRVGDF 0
GCPQRLSS 0
TTELAILP 0
VCIMLSDF 0
TYRYVTPG 0
CTVNFTLF 0
GGGGSTSN 0
VPPHSARS 0
LVPLITYS 0
RPLACLKG 0
AAARAAGL 0
DRATLRAF 0
YTICRCEA 0
AAEFFTEV 0
RCPCGASI 0
LGLLQRAT 0
LYDHLAPM 0
RDKNVVTG 0
IYQCCNLE 0
QNETCLTH 0
STSNESDL 0
AELSVAAE 0
GRTGRGRL 0
LSSKAVNQ 0
IPCVQDGN 0
VSVLTSML 0
TTCWTPVT 0
VPPSPGGE 0
LLRDEITF 0
TFPINEYT 0
AKDVRSLS 0
ELGGKPAL 0
MVVAHVLR 0
EEQSVVCC 0
SLDPTFSI 0
VQDGNKTT 0
EEIYQCCN 0
CRASGVLP 0
FKTWLSAK 0
TCLTHPIT 0
VILDSFEP 0
ALFGFFTL 0
LALFSCLI 0
MRLAGPRT 0
NTITCYIK 0
HRPHPDAE 0
QDGNKTTC 0
TIRRPQDV 0
ASKVPPSP 0
GDMCGAVF 0
KLSTATMG 0
AGDVVVCA 0
RTIQLDGS 0
LVPDKEVL 0
AKKVISSL 0
GVILLTSL 0
APMQHWAA 0
RPCETVKA 0
VVAESDGV 0
DIEDRDRS 0
VSARLGRE 0
VQTCNCSL 0
KMRTFVGG 0
LTVTSLLR 0
GVDTQSST 0
LEPEAKKV 0
VCARAQAP 0
MQGNWAKV 0
VGVICAAI 0
TCQTHRPH 0
AVTHTVGS 0
NRTALNCD 0
VFLVGQAF 0
KSLRPPGG 0
PEATYSRC 0
FTLSPWYK 0
VASLMAFT 0
NVSAALAA 0
QAIAHQFK 0
VPQSYQVG 0
RAHVLVRL 0
CCNLEPEA 0
RPRRHQTV 0
TNWQKLEA 0
CNIYGGGG 0
CIMLSDFK 0
LPQRAYAW 0
FPSSEPRG 0
TWVLLGGV 0
TRDATTPL 0
VGGFEHRF 0
WVRMVMMT 0
VLALFGFF 0
QTKQQGLN 0
SSLTVTSL 0
GLPFISCQ 0
SSSSGVDT 0
AECFKKPP 0
FEMYGATY 0
PRRKRTIQ 0
SHVDLLVG 0
FNTYLYDH 0
CGAPPCNI 0
SFEPLRAE 0
KPITYFRQ 0
ERSQPRER 0
CALPPRGA 0
VTHTVGSS 0
ARVTALLS 0
GAVFLVGQ 0
SFTPMPAL 0
GQAFTFRP 0
PPCNIYGG 0
AITTTPYF 0
ECFKKPPK 0
LYVLTNDC 0
IWDWVCIM 0
GVMSTRCP 0
AEFFTEVD 0
LEWRNTSG 0
AWHVRGKL 0
PQQRVERL 0
ARAAGLRN 0
RGVAKALQ 0
VNQIRSVW 0
YGATYSVT 0
ERCDIEDR 0
QIRSVWED 0
LVNTNGSW 0
TLAGVKHP 0
EPVIFSPM 0
HPAASLEW 0
HQTVQTCN 0
TEQDIRVE 0
SPGGESDS 0
WKCLVRLK 0
AAAGLKDL 0
NLQLVNTN 0
SIRSHVDL 0
WNQYTICR 0
DILCGLPV 0
RWFGCTWM 0
LWLMLMIS 0
AVFLVGQA 0
EMGWRLLA 0
SVIDCNVA 0
AETDDAEL 0
KYFQMIIL 0
LNTGFIAG 0
GRGRLGTY 0
HLDFWESV 0
VTALLSSL 0
QQRVERLL 0
TTPYFVRA 0
HPLLHSTT 0
PISPLSNS 0
GLGRVLLD 0
EGKRYYYL 0
LYCGGPMF 0
MGGKYFQM 0
VGMVVAHV 0
RQNLQLVN 0
SPSFSDNS 0
MPALSTGL 0
ALPPRGAP 0
VVVGTTDA 0
AVAAAGTH 0
ISSLTERL 0
YVAQGYNV 0
MWYGTFPI 0
NPPLLDRW 0
KKVTFDRL 0
WGPLTDAN 0
AYGIDPNI 0
TGAKLTYS 0
CMLVRSVM 0
STPGLPVC 0
VTEQDIRV 0
LRAETDDA 0
DSWSTVSD 0
HKHMWNFV 0
VETLSTQA 0
DEDRATLR 0
YSRCGAGP 0
VGGVYVLP 0
YAIGSQLP 0
AAYCLSVG 0
SIFLLALF 0
IAGLFYYH 0
KTTCWTPV 0
WQKLEAFW 0
YAWSGEDS 0
LKSLRPPG 0
VTPLDLPA 0
RGSRDGVI 0
ATTPLARA 0
TIWVRMVM 0
TPPAVPQS 0
IIMVMFSG 0
KLLIAVLG 0
ASLEWRNT 0
VFCVDPVK 0
WSTVSDNE 0
TICRCEAA 0
QWINEDYP 0
VKNGSMRL 0
RFTAACNW 0
LDFEMYGA 0
HSARSKFG 0
TPPGSITV 0
GTTDAKGA 0
AKALQFIP 0
FSIETRTA 0
RTCANMWY 0
PYIEQAQA 0
VAAECFKK 0
LGFGSFMS 0
DMCGAVFL 0
SKKTPLGF 0
ILSVGRWF 0
HVRGKLVP 0
CVQDGNKT 0
PCTCGSAD 0
IEPIVATN 0
DLFCPTDC 0
SCDSWSTV 0
GNRTVTTG 0
TYSRCGAG 0
PLACLKGS 0
SYLTAYQA 0
LVRLKPTL 0
LNSYAIGS 0
LAVATEPV 0
VSGIQYLA 0
KKTPLGFS 0
MWNFVSGI 0
DAELSVAA 0
YPSLIFDI 0
VDEDRATL 0
IKVITWGA 0
PCPSLNYT 0
VMCPSGHV 0
HVSPTHYV 0
SLYPGHLT 0
SDNEEQSV 0
CYDAGCSW 0
DLLVGAAT 0
QLDGSNVS 0
PCNIYGGG 0
GAQCGYRR 0
EQYVDFSL 0
AVSRSQRR 0
YVEVRRVG 0
DWLRTIWD 0
ETVKASSV 0
LRAFTEAM 0
VRLTVLAT 0
LIFDITKL 0
YIEQAQAI 0
TSLLYPSL 0
MCPSGHVA 0
LQRATQQQ 0
AKSLEPCT 0
PPRPCETV 0
LFSPGSRQ 0
ATMGSAYG 0
FKKPPKYP 0
GLWSLALL 0
ALAALAEK 0
LSPWYKHW 0
STLPKPQR 0
LNFSYLTA 0
IRTGNRTV 0
RLAGPRTC 0
KLTYSTYG 0
LLARGSRD 0
EDRATLRA 0
PQSYQVGY 0
LVGAATMC 0
DDKPYCWH 0
YPPRPCET 0
KIMPALPG 0
YGVGSGMV 0
ALAEKSFP 0
TQSSTASK 0
SMRLAGPR 0
GLFSPGSR 0
DATTPLAR 0
DSVIDCNV 0
LFGFFTLS 0
TLSTQARS 0
GNKTTCWT 0
MIILSVGR 0
ETRTAPQD 0
HGVRALED 0
TKVPAAYV 0
SLNTGFIA 0
EYTTGPST 0
SAFTLHSY 0
DAGCSWYD 0
DGINFATG 0
LYGVGSGM 0
VAAAGTHG 0
KKVISSLT 0
ITTTPYFV 0
LHRYAPPC 0
SASATRGI 0
GDGVMSTR 0
QYDEMEEC 0
LPPRGAPP 0
STRCPCGA 0
LPQTLFDI 0
SDNSTPPA 0
TTDAKGAP 0
WRGDGVMS 0
LSCDSWST 0
ILHTPGCI 0
SVTSPLTT 0
FTLFKMRT 0
GLLQRATQ 0
DFKTWLSA 0
VAVKYVGA 0
SLIFDITK 0
LSTPGLPV 0
ALFSCLIH 0
GFGSFMSR 0
YSPVELNR 0
YGGGGSTS 0
PALPGLPF 0
NEGKRYYY 0
QSYQVGYL 0
VYPDLGVR 0
TFSIETRT 0
AFTLHSYS 0
SLLRRLHQ 0
VIQKLSTA 0
IFLLALFS 0
ICAAILRR 0
VEVRRVGD 0
YVLTNDCP 0
RDATTPLA 0
TGLWSLAL 0
GVDAVTHT 0
SSLTERLY 0
ALWRVAAN 0
KPPKYPPA 0
MYAPTIWV 0
ATCQTHRP 0
ANMWYGTF 0
YSPQQRVE 0
RATQQQAV 0
LHSTTELA 0
KPLLRDEI 0
AFWHKHMW 0
APQDAVSR 0
ADLYLVTR 0
PSAGDVVV 0
DSTASLLS 0
ALAAYCLS 0
VAVEQYVD 0
SLEWRNTS 0
RLHRYAPP 0
ATRGITGL 0
NITGPSDD 0
PKYPPALP 0
IMLSDFKT 0
GALITPCS 0
GEDSSSSG 0
TLGAGVLA 0
DSTVTEQD 0
PLITYSLT 0
SPMEIKVI 0
SKVPPSPG 0
VGAATMCS 0
MLMISQAE 0
SSSASATR 0
PGGRWFGC 0
AVEQYVDF 0
FNSKGAQC 0
RGDGVMST 0
FIPVETLS 0
PSFSDNST 0
YRYVTPGE 0
DGLKCPCQ 0
YDAGCSWY 0
HQFKEKVL 0
GVRALEDG 0
YTTGPSTP 0
TPTVAVKY 0
RLGPVQNE 0
DWVCIMLS 0
YSLTGLWS 0
RPLDFEMY 0
FIAGLFYY 0
LFFNILGG 0
VPDKEVLY 0
AYLSTPGL 0
PHSARSKF 0
ERLLKMWT 0
TTSTWVLL 0
YIKATAAA 0
DRPLDFEM 0
LEDGINFA 0
LKGGRHLI 0
TRALWRVA 0
TLGFGSFM 0
VRLCMLVR 0
VFLLKSLR 0
SPQQRVER 0
TLRKLGCP 0
AQAIAHQF 0
NLEPEAKK 0
TRGITGLF 0
FLLKSLRP 0
LWSLALLV 0
RTIWDWVC 0
CGDDLVVV 0
DDHYKTAL 0
KGAQCGYR 0
TASKVPPS 0
VLTNDCPN 0
MGWRLLAP 0
DLQPAETT 0
APPVPPPR 0
KKCDEIAS 0
FGTIVTSL 0
CDSWSTVS 0
TAAARAAG 0
MWKCLVRL 0
SLRPPGGR 0
RCDIEDRD 0
LLALFSCL 0
SRQNLQLV 0
LLIAVLGP 0
SGHVAGIF 0
LALFGFFT 0
FMSRAYGI 0
TTTPYFVR 0
SEPRGEDS 0
EVLYQQYD 0
FGFFTLSP 0
EDYPSPCS 0
FVSGIQYL 0
VKGGRKPA 0
VDTQSSTA 0
EDSSSSGV 0
RTALNCDD 0
GGSTSNES 0
YKGVWRGD 0
EMWKCLVR 0
RMVMMTHF 0
LGREVLLG 0
SKGAQCGY 0
TVTSLLRR 0
GFQYSPQQ 0
KKKCDEIA 0
DHLDFWES 0
PPRRKRTI 0
PDVSVLTS 0
TSNESDLF 0
SNESDLFC 0
RNTIRRPQ 0
TSTWVLLG 0
PPTVHGCA 0
EQAQAIAH 0
APDYEPPT 0
NTIRRPQD 0
LAGPRTCA 0
EHRFTAAC 0
GRWFGCTW 0
GTTVGGVM 0
LYPSLIFD 0
TVTTGAKL 0
TALKEVKE 0
SDFKTWLS 0
APPCNIYG 0
NVLVLNPS 0
VNFTLFKM 0
AATLGFGS 0
AHWGILAG 0
VDAVTHTV 0
ASVTSPLT 0
CLVRLKPT 0
CALVPPHS 0
VILLTSLL 0
GPVQNETC 0
QGNWAKVA 0
LTRDATTP 0
TMGSAYGF 0
VKARMLTI 0
SSSAFVVS 0
TVTEQDIR 0
VMSTRCPC 0
LTAYQATV 0
RQGWGPLT 0
LGCPPLRA 0
THLAGPQS 0
IRRPQDVK 0
QAFTFRPR 0
AAWHVRGK 0
VTPGERPS 0
MCSALYVG 0
SWDEMWKC 0
SYQVGYLH 0
AAITTTPY 0
YEPPTVHG 0
FEPLRAET 0
QHPLLHST 0
SVLTSMLR 0
SVGRWFNT 0
KDVRSLSS 0
TRDADVIP 0
ERRQPIPK 0
PVKGGRKP 0
FRQGWGPL 0
PQPTYDLE 0
KAIPIAQL 0
FFTLSPWY 0
LSQTKQQG 0
WHVRGKLV 0
KSFPSSEP 0
NVSVARDN 0
AAAGTHGI 0
SGDWLRTI 0
GGESDSES 0
AHVLVRLC 0
FGSFMSRA 0
SVTPLDLP 0
NLVYSTSS 0
LPGLPFIS 0
LLQRATQQ 0
TTVGGVMW 0
KPTLHGPT 0
LVRSVMGG 0
SATRGITG 0
SADLYLVT 0
DYEPPTVH 0
NIYGGGGS 0
AASLEWRN 0
AAGLKDLA 0
GATTASIR 0
DEITFMVG 0
CARAQAPP 0
VLLLPQRA 0
VGLGRVLL 0
YQQYDEME 0
QQGLNFSY 0
ITGPSDDK 0
LEVTTSTW 0
TLFKMRTF 0
PTIWVRMV 0
VDPVKGGR 0
LTGLWSLA 0
PSLIFDIT 0
NEEQSVVC 0
YLTAYQAT 0
IAQLKGGR 0
ALWLMLMI 0
SAKDVRSL 0
IIAGAHWG 0
SSSGVDTQ 0
LVYSTSSR 0
SVIPSAGD 0
TDVFLLKS 0
DTTTPIPT 0
CETVKASS 0
ALYDVIQK 0
AQLKGGRH 0
YGKAIPIA 0
AQCGYRRC 0
QNLQLVNT 0
DAVTHTVG 0
LHSYSPVE 0
TDDAELSV 0
LTTNQTLF 0
AAGTHGIG 0
EEACALVP 0
HLAPMQHW 0
DPVKGGRK 0
GLNSYAIG 0
AVNQIRSV 0
TKVVILDS 0
ALVPPHSA 0
YPGHLTGH 0
AVKYVGAT 0
VAGIFRAA 0
VPHSNIEE 0
LLLPQRAY 0
ALYVGDMC 0
PMQHWAAA 0
TAACNWTR 0
WGILAGLA 0
SLLSPRPL 0
ATNWQKLE 0
DYREMGWR 0
SQPRERRQ 0
ETCLTHPI 0
PWYKHWIG 0
CGDILCGL 0
CVALWLML 0
HLAGPQSS 0
VGSGMVGW 0
IHPAASLE 0
QCGYRRCR 0
SIAGHVKN 0
SSRSASQR 0
TTASIRSH 0
WLMLMISQ 0
TVSDNEEQ 0
TALLSSLT 0
AFTASVTS 0
SLLYPSLI 0
APTIWVRM 0
LSTATMGS 0
RAFTEAMT 0
SGMVGWAL 0
FSDNSTPP 0
FATGNLPG 0
RYVTPGER 0
MSTLPKPQ 0
MYGATYSV 0
YQCCNLEP 0
QRQKKVTF 0
EIYQCCNL 0
EQSVVCCS 0
GSFMSRAY 0
KGAPTYTW 0
YGFQYSPQ 0
HYKTALKE 0
MEIKVITW 0
MRTFVGGF 0
MFSGVDAV 0
VSVARDNE 0
VLRLPQTL 0
QQYDEMEE 0
LLSPRPLA 0
AGLKDLAV 0
APYIEQAQ 0
PVETLSTQ 0
TQQQAVIE 0
YLSTPGLP 0
LVFLLLAD 0
RTGRGRLG 0
PTAEDMVN 0
KQQGLNFS 0
KCLVRLKP 0
TLFDIIAG 0
RAYAWSGE 0
PGCIPCVQ 0
FSYLTAYQ 0
RHHNLVYS 0
WYKHWIGR 0
CHAQDATS 0
DLSCDSWS 0
GWPAPPGA 0
GSRDGVIL 0
GNPAVASL 0
GAHWGILA 0
LGTYRYVT 0
PGLPFISC 0
ADARVCVA 0
VVILDSFE 0
YCGGPMFN 0
CLTHPITK 0
RGRTGRGR 0
TATMGSAY 0
PGNPAVAS 0
GSEGEIPF 0
TALNCDDS 0
SVAAECFK 0
CQTHRPHP 0
LFDIIAGA 0
EITFMVGL 0
GSGMVGWA 0
VTRDADVI 0
LNYTRALW 0
LFSCLIHP 0
SPLTTNQT 0
TIVTSLTG 0
RGAPPVPP 0
TATPPGSI 0
LGRVLLDI 0
TSMLRDPS 0
LTDANITG 0
ITYSLTGL 0
CGSADLYL 0
WESVFTGL 0
LSSCKPIT 0
EPLRAETD 0
RVCVALWL 0
KTWLSAKI 0
VLLDILAG 0
GFFTLSPW 0
VFCAAWHV 0
ASSVCGPV 0
HAQDATSI 0
FDSTVTEQ 0
AKGAPTYT 0
IPIAQLKG 0
TELAILPC 0
IAGAHWGI 0
YVTPGERP 0
GDWLRTIW 0
KAPDYEPP 0
DDSLNTGF 0
RSLSSKAV 0
LLDILAGY 0
WRNTSGLY 0
TGPSDDKP 0
QARSPSFS 0
TTNQTLFF 0
PSGHVAGI 0
IPSAGDVV 0
QSVVCCSM 0
ATMCSALY 0
EQHPLLHS 0
KVPPSPGG 0
SRDGVILL 0
PAAYVAQG 0
AVASLMAF 0
NSYAIGSQ 0
GGPVMCPS 0
PQRLSSCK 0
GHVAGIFR 0
TYSLTGLW 0
PPLLARGS 0
KCDEIASK 0
GKRYYYLT 0
QYTICRCE 0
STVTEQDI 0
PSLNYTRA 0
TIWDWVCI 0
LLHSTTEL 0
LQPAETTV 0
VGQAFTFR 0
LIHPAASL 0
PCQVPAAE 0
AARRLARG 0
ASIAGHVK 0
EMYGATYS 0
ATYSRCGA 0
LLVGAATM 0
RSKFGYSA 0
GSTSNESD 0
SRAYGIDP 0
VAKALQFI 0
NMWYGTFP 0
MQHWAAAG 0
ETDVFLLK 0
GMVGWALK 0
ELSVAAEC 0
IWVRMVMM 0
EKVLGLLQ 0
DEIASKLR 0
KVPAAYVA 0
TVNFTLFK 0
GVICAAIL 0
PRRHQTVQ 0
VLYQQYDE 0
ALPGLPFI 0
TSSRSASQ 0
KHWIGRLM 0
MMMNWSPA 0
FKMRTFVG 0
ALNCDDSL 0
ILLTSLLY 0
SLTGLWSL 0
VNTNGSWH 0
YVGATTAS 0
GGRKPARL 0
PRPCETVK 0
GWGPLTDA 0
EILDRPLD 0
PCVQDGNK 0
VIEPIVAT 0
GWALKWEF 0
VGATTASI 0
VGWALKWE 0
DGVMSTRC 0
YRLGPVQN 0
WHKHMWNF 0
YSVTPLDL 0
GRWFNTYL 0
RPHPDAEL 0
WTPVTPTV 0
NCSLYPGH 0
VGRWFNTY 0
GSRQNLQL 0
QLKGGRHL 0
LACLKGSS 0
FVVLVFLL 0
CDDSLNTG 0
EIKVITWG 0
LIQAAITT 0
SVVCCSMS 0
LRDPSHIT 0
GEFPTAED 0
LKATCQTH 0
KTKRNTIR 0
WYLVVFCA 0
DSSSSGVD 0
QRATQQQA 0
PPLLDRWK 0
NTSGLYVL 0
ATLRAFTE 0
PAVASLMA 0
ARVCVALW 0
SADLEVTT 0
SFGNTITC 0
ICRCEAAL 0
IPVETLST 0
LTSMLRDP 0
RRVGDFHY 0
NFATGNLP 0
LRTIWDWV 0
GATEDGLK 0
HTPGCIPC 0
SWSTVSDN 0
PVSARLGR 0
RTGNRTVT 0
DVFLLKSL 0
PPRGAPPV 0
NSKGAQCG 0
ITGLFSPG 0
EDGLKCPC 0
KRALYDVI 0
EDGINFAT 0
TLFFNILG 0
PLDFEMYG 0
KLGCPPLR 0
EPIVATNW 0
VFLLLADA 0
TGATEDGL 0
GASIAGHV 0
LDVSVIPS 0
PCTVNFTL 0
DYNPPLLD 0
CPSGHVAG 0
PIAQLKGG 0
RGEDSSSS 0
VSAALAAL 0
CPSLNYTR 0
GAPPVPPP 0
KVISSLTE 0
GFIAGLFY 0
RASGVLPT 0
RLSSCKPI 0
VLLGGVLA 0
DANLLWRQ 0
TRGVAKAL 0
KHPEATYS 0
GHLTGHRM 0
PGGESDSE 0
QKLEAFWH 0
ATTASIRS 0
ALEDGINF 0
HSYSPVEL 0
SEGEIPFY 0
HVLVRLCM 0
KARMLTIE 0
GSMRLAGP 0
AIIMVMFS 0
LVPPHSAR 0
RTAPQDAV 0
PLLDRWKA 0
RALYDVIQ 0
GAATMCSA 0
VIPSAGDV 0
DVIQKLST 0
DLEVTTST 0
LVTRDADV 0
STQARSPS 0
KVLGLLQR 0
VARDNEGK 0
TGFIAGLF 0
PRPLACLK 0
IGSQLPCE 0
IQKLSTAT 0
YYLTRDAT 0
IVATNWQK 0
TPCPSLNY 0
RSVMGGKY 0
SPLSNSLL 0
KYPPALPI 0
PNIRTGNR 0
NEDYPSPC 0
PITYFRQG 0
GPSTPCPS 0
TLSPWYKH 0
LKDLAVAT 0
EPCTCGSA 0
VTTGAKLT 0
LDPTFSIE 0
WTSKKTPL 0
AARAAGLR 0
ETDDAELS 0
ARSKFGYS 0
VEQYVDFS 0
NGSMRLAG 0
VTPTVAVK 0
IEEACALV 0
TEDGLKCP 0
KIMGGEFP 0
GKAIPIAQ 0
ETLSTQAR 0
YTRALWRV 0
CIPCVQDG 0
RQKKVTFD 0
IMVMFSGV 0
VSVIPSAG 0
SERSQPRE 0
TCGAPPCN 0
GSITVPHS 0
WFNTYLYD 0
AGVLALFG 0
WALKWEFV 0
RGRLGTYR 0
PYFVRAHV 0
GTYRYVTP 0
EVTTSTWV 0
FLVGQAFT 0
PRGEDSSS 0
FPINEYTT 0
AIPIAQLK 0
LARGSRDG 0
GGVGLGRV 0
ALQFIPVE 0
NYTRALWR 0
PVGGVARA 0
DDAELSVA 0
YLYDHLAP 0
ECYDAGCS 0
EAFWHKHM 0
LLTSLLYP 0
SGLAGAAI 0
YFQMIILS 0
PVQNETCL 0
YDHLAPMQ 0
LADARVCV 0
FQMIILSV 0
FTPMPALS 0
DSFEPLRA 0
VVGTTDAK 0
SFMSRAYG 0
PGHLTGHR 0
PMFNSKGA 0
GGPMFNSK 0
YITGATED 0
AGPQSSSA 0
SITVPHSN 0
YLVVFCAA 0
DVSVIPSA 0
WYGTFPIN 0
ARGSRDGV 0
QRAYAWSG 0
IGWYLVVF 0
SIETRTAP 0
FQYSPQQR 0
TAPQDAVS 0
AAECFKKP 0
YLYGVGSG 0
INFATGNL 0
TATQTFLG 0
LAGVKHPA 0
PLLARGSR 0
DNEEQSVV 0
ANITGPSD 0
DPTFSIET 0
AHQFKEKV 0
KEVLYQQY 0
SSASATRG 0
CPCGASIA 0
VPAAYVAQ 0
GLFGTIVT 0
VRGKLVPL 0
DPDLSCDS 0
TMCSALYV 0
RVTALLSS 0
ASKLRGMG 0
QTCNCSLY 0
KATCQTHR 0
KLEAFWHK 0
FKIMGGEF 0
TDANITGP 0
PAAEFFTE 0
KRNTIRRP 0
LNCDDSLN 0
PMEIKVIT 0
QAAITTTP 0
AGPRTCAN 0
SVMGGKYF 0
SPRPLACL 0
GLYVLTND 0
RDEITFMV 0
CSGGAYDV 0
LLKSLRPP 0
IETRTAPQ 0
YYYLTRDA 0
CRCEAALQ 0
MEECSQAA 0
GNTITCYI 0
THYVPESD 0
GPQSSSAF 0
EFVVLVFL 0
VMWTVYHG 0
ISCQKGYK 0
MFNSKGAQ 0
AHVLRLPQ 0
DKEVLYQQ 0
PCGASIAG 0
SAALAALA 0
AARVTALL 0
VISSLTER 0
WVCIMLSD 0
SEGRSWAQ 0
NIRTGNRT 0
MISQAEAA 0
SLTVTSLL 0
ATQTFLGT 0
TIEEACAL 0
PSSEPRGE 0
AACGDILC 0
VERLLKMW 0
INEDYPSP 0
FCPTDCFR 0
NWQKLEAF 0
GVGLGRVL 0
QCCNLEPE 0
YDVIICDE 0
GTIVTSLT 0
YPPALPIW 0
ASGVLPTS 0
GAKLTYST 0
GLAGAAIG 0
CVDPVKGG 0
ELAILPCS 0
VPAAEFFT 0
SSCKPITY 0
QPRERRQP 0
LLYPSLIF 0
CSLYPGHL 0
RAYGIDPN 0
PAVPQSYQ 0
MGSAYGFQ 0
MPALPGLP 0
DNEGKRYY 0
TGRGRLGT 0
STASKVPP 0
MLVRSVMG 0
DAKGAPTY 0
GVAKALQF 0
RDNEGKRY 0
SKFGYSAK 0
AALAEKSF 0
VAIIMVMF 0
VGSSSASA 0
CWTPVTPT 0
STASLLSP 0
SAFVVSGL 0
KHMWNFVS 0
STATMGSA 0
SSKAVNQI 0
VTSPLTTN 0
GAPVGGVA 0
VQNETCLT 0
ASIRSHVD 0
HVAGIFRA 0
REMGWRLL 0
LLPQRAYA 0
FSPMEIKV 0
FSGVDAVT 0
FSCLIHPA 0
IMGGEFPT 0
EMEECSQA 0
TQTFLGTT 0
RVGDFHYI 0
ILCGLPVS 0
MWWNQYTI 0
SLKATCQT 0
GVRLTVLA 0
ATLGFGSF 0
SGLYVLTN 0
GAAIGGVG 0
LLEDTTTP 0
GPMFNSKG 0
TKQQGLNF 0
ALKEVKER 0
QDIRVEEE 0
LAGAAIGG 0
RLGTYRYV 0
IRSHVDLL 0
VRAHVLVR 0
GSSSASAT 0
QHWAAAGL 0
KNGSMRLA 0
TPMPALST 0
CANMWYGT 0
TRTAPQDA 0
YFVRAHVL 0
LDRPLDFE 0
IGGVGLGR 0
PQRAYAWS 0
VICAAILR 0
VSDNEEQS 0
RWFNTYLY 0
RMLTIEEA 0
GITGLFSP 0
TAACGDIL 0
ACGDILCG 0
TIQLDGSN 0
RVERLLKM 0
QEILDRPL 0
QSSTASKV 0
SVARDNEG 0
VLDDHYKT 0
KDLAVATE 0
DKNVVTGE 0
EAKKVISS 0
LFGTIVTS 0
SKAVNQIR 0
LRAYLSTP 0
ELNRVAGT 0
YDHLAPMQH 0
HWAAAGLKD 0
VMCPSGHVA 0
AFWHKHMWN 0
RTGNRTVTT 0
CPSGHVAGI 0
LFSCLIHPA 0
THRPHPDAE 0
FSGVDAVTH 0
WAAAGLKDL 0
GNRTVTTGA 0
FPSSEPRGE 0
YREMGWRLL 0
RVLLDILAG 0
ARVCVALWL 0
QYTICRCEA 0
NTYLYDHLA 0
RDNEGKRYY 0
TVQTCNCSL 0
QRLSSCKPI 0
TMCSALYVG 0
AIAHQFKEK 0
GFGSFMSRA 0
TCLTHPITK 0
NIRTGNRTV 0
FDSTVTEQD 0
LRAFTEAMT 0
RRHQTVQTC 0
SVTSPLTTN 0
ALAEKSFPS 0
HQWINEDYP 0
LSSCKPITY 0
QHWAAAGLK 0
TYFRQGWGP 0
VAIIMVMFS 0
DLLVGAATM 0
PDLSCDSWS 0
PAPPGAKSL 0
GATTASIRS 0
SERSQPRER 0
AKALQFIPV 0
LALFSCLIH 0
TAPQDAVSR 0
LWLMLMISQ 0
AACGDILCG 0
LLRDEITFM 0
CDIEDRDRS 0
TTSTWVLLG 0
GSITVPHSN 0
QTVQTCNCS 0
YSVTPLDLP 0
LKDLAVATE 0
ASATRGITG 0
EPIVATNWQ 0
FMSRAYGID 0
FVGGFEHRF 0
RPRRHQTVQ 0
CETVKASSV 0
VAVKYVGAT 0
AKKVISSLT 0
SRDGVILLT 0
EEIYQCCNL 0
TGATEDGLK 0
VGSGMVGWA 0
SMLRDPSHI 0
VLRLPQTLF 0
RASGVLPTS 0
VPPSPGGES 0
RGVAKALQF 0
INEDYPSPC 0
LAPMQHWAA 0
WLRTIWDWV 0
SPGGESDSE 0
GGPMFNSKG 0
RAYAWSGED 0
VKARMLTIE 0
FKKPPKYPP 0
YIKATAAAR 0
DLQPAETTV 0
AWHVRGKLV 0
CSGGAYDVI 0
IIMVMFSGV 0
KAVNQIRSV 0
QSYQVGYLH 0
LFDIIAGAH 0
GSSSASATR 0
ESVFTGLTH 0
STSNESDLF 0
RYVTPGERP 0
DYEPPTVHG 0
LSTATMGSA 0
RDATTPLAR 0
AGPQSSSAF 0
PSPCSGDWL 0
PGSITVPHS 0
DEITFMVGL 0
SGHVAGIFR 0
PALPGLPFI 0
RWKAPDYEP 0
EACALVPPH 0
FRQGWGPLT 0
FVSGIQYLA 0
IPCVQDGNK 0
YFRQGWGPL 0
AVNQIRSVW 0
LEWRNTSGL 0
HRPHPDAEL 0
NEEQSVVCC 0
RTGRGRLGT 0
FLLKSLRPP 0
YPPRPCETV 0
PQRAYAWSG 0
GVGSGMVGW 0
AAAGLKDLA 0
VALWLMLMI 0
MWKCLVRLK 0
RTVTTGAKL 0
GFIAGLFYY 0
LITYSLTGL 0
VTHTVGSSS 0
CPCQVPAAE 0
PPRGAPPVP 0
PGGESDSES 0
GVWRGDGVM 0
SWSTVSDNE 0
MQHWAAAGL 0
VGQAFTFRP 0
GLLQRATQQ 0
KTWLSAKIM 0
QQYDEMEEC 0
GILAGLAYY 0
PYIEQAQAI 0
VPLITYSLT 0
FSPGSRQNL 0
FVRAHVLVR 0
YNPPLLDRW 0
TVKASSVCG 0
CNIYGGGGS 0
EKVLGLLQR 0
RTLAGVKHP 0
SLRPPGGRW 0
TLRAFTEAM 0
GAPTYTWGE 0
LEPEAKKVI 0
YPGHLTGHR 0
VWRGDGVMS 0
PEAKKVISS 0
SLLYPSLIF 0
ALVPPHSAR 0
VCARAQAPP 0
YVLTNDCPN 0
WEFVVLVFL 0
STASKVPPS 0
LSVGRWFNT 0
YGATYSVTP 0
VQTCNCSLY 0
SFMSRAYGI 0
SFGNTITCY 0
RHQTVQTCN 0
GDILCGLPV 0
AQLKGGRHL 0
LAGPRTCAN 0
MQGNWAKVA 0
KVLGLLQRA 0
VRLTVLATA 0
TIQLDGSNV 0
TDDAELSVA 0
SVAAECFKK 0
DTTTPIPTT 0
LVFLLLADA 0
ALPGLPFIS 0
QRAYAWSGE 0
PRERRQPIP 0
PSLNYTRAL 0
ATQTFLGTT 0
LAEKSFPSS 0
DEIASKLRG 0
VSVIPSAGD 0
VSAALAALA 0
TYRYVTPGE 0
PSGHVAGIF 0
CPQRLSSCK 0
ITFMVGLNS 0
LTGLWSLAL 0
MVVAHVLRL 0
LLQRATQQQ 0
IASKLRGMG 0
YLVVFCAAW 0
LSPWYKHWI 0
NIYGGGGST 0
ATTASIRSH 0
VGGVYVLPR 0
VKNGSMRLA 0
HPAASLEWR 0
NTSGLYVLT 0
LITPCSAEE 0
LTTNQTLFF 0
PRRHQTVQT 0
HYKTALKEV 0
PMFNSKGAQ 0
SSSGVDTQS 0
CIMLSDFKT 0
GGVGLGRVL 0
ILLTSLLYP 0
ITTTPYFVR 0
CGAVFLVGQ 0
GTTDAKGAP 0
GGPVMCPSG 0
EAKKVISSL 0
AARVTALLS 0
KLSTATMGS 0
GMVGWALKW 0
VDTQSSTAS 0
FGSFMSRAY 0
TIRRPQDVK 0
PIAQLKGGR 0
AATLGFGSF 0
KSFPSSEPR 0
RCPCGASIA 0
WEDLLEDTT 0
TPGCIPCVQ 0
YSLTGLWSL 0
PLACLKGSS 0
DATTPLARA 0
GRTGRGRLG 0
RTAPQDAVS 0
QRATQQQAV 0
VARDNEGKR 0
GNWAKVAII 0
TKQQGLNFS 0
ALEDGINFA 0
RLHRYAPPC 0
AEKSFPSSE 0
EDLLEDTTT 0
CQTHRPHPD 0
MGGEFPTAE 0
VPAAEFFTE 0
YKTALKEVK 0
RERRQPIPK 0
VTSPLTTNQ 0
PTVAVKYVG 0
SSASATRGI 0
ITYSLTGLW 0
LLALFSCLI 0
FCAAWHVRG 0
PGLPFISCQ 0
PVIFSPMEI 0
ALPPRGAPP 0
ECYDAGCSW 0
THLAGPQSS 0
AYLSTPGLP 0
AAARAAGLR 0
VDEDRATLR 0
SLKATCQTH 0
KRNTIRRPQ 0
PSAGDVVVC 0
DSSSSGVDT 0
TNWQKLEAF 0
LGTYRYVTP 0
TLGAGVLAL 0
CTVNFTLFK 0
GTYRYVTPG 0
DGINFATGN 0
VRLCMLVRS 0
AVAAAGTHG 0
TYSVTPLDL 0
DGVILLTSL 0
AFTLHSYSP 0
PVTPTVAVK 0
LDFWESVFT 0
GWALKWEFV 0
PLTDANITG 0
VVLVFLLLA 0
VQNETCLTH 0
CGDILCGLP 0
GLGRVLLDI 0
FDIIAGAHW 0
MLVRSVMGG 0
VVGTTDAKG 0
ANITGPSDD 0
SQPRERRQP 0
SFSDNSTPP 0
CNCSLYPGH 0
CANMWYGTF 0
AAGLRNPDF 0
PCQVPAAEF 0
QMIILSVGR 0
SLEWRNTSG 0
QSVVCCSMS 0
ASVTSPLTT 0
YPSPCSGDW 0
RDEITFMVG 0
YTICRCEAA 0
CGGPMFNSK 0
WYLVVFCAA 0
KLEAFWHKH 0
CKPITYFRQ 0
HVAGIFRAA 0
FNSKGAQCG 0
VPAAYVAQG 0
CNVAVEQYV 0
GFEHRFTAA 0
FGTIVTSLT 0
FEPLRAETD 0
TICRCEAAL 0
TQARSPSFS 0
SSSAFVVSG 0
GPSTPCPSL 0
PTAEDMVNL 0
STRCPCGAS 0
SRTLAGVKH 0
LGFGSFMSR 0
DYPSPCSGD 0
RVCVALWLM 0
GVAKALQFI 0
TLFKMRTFV 0
GSMRLAGPR 0
VAAAGTHGI 0
HTVGSSSAS 0
TKRNTIRRP 0
DDHYKTALK 0
RTCANMWYG 0
YNVLVLNPS 0
GTTVGGVMW 0
GLYVLTNDC 0
WDWVCIMLS 0
GVILLTSLL 0
LFSPGSRQN 0
QGYNVLVLN 0
VGMVVAHVL 0
SSSSGVDTQ 0
TYLYDHLAP 0
FSIETRTAP 0
LYDHLAPMQ 0
KIMPALPGL 0
DEDRATLRA 0
YTRALWRVA 0
VLLDILAGY 0
GGGSTSNES 0
YVGATTASI 0
AIIMVMFSG 0
LNCDDSLNT 0
VAQGYNVLV 0
PGGRWFGCT 0
AKGAPTYTW 0
EAFWHKHMW 0
FISCQKGYK 0
TFVGGFEHR 0
SVGRWFNTY 0
GPVMCPSGH 0
SAFTLHSYS 0
IWVRMVMMT 0
LYGVGSGMV 0
TSPLTTNQT 0
VLYQQYDEM 0
GPQSSSAFV 0
APPCNIYGG 0
ALAALAEKS 0
ILDRPLDFE 0
IAHQFKEKV 0
IETRTAPQD 0
ARGSRDGVI 0
GKRYYYLTR 0
DVSVIPSAG 0
ITGATEDGL 0
VNQIRSVWE 0
TLFFNILGG 0
GMVVAHVLR 0
SAGDVVVCA 0
VIEPIVATN 0
LQPAETTVR 0
LLYPSLIFD 0
ALQVWVPPL 0
SGLYVLTND 0
GRVLLDILA 0
YKGVWRGDG 0
VNFTLFKMR 0
RAAGLRNPD 0
MAFTASVTS 0
EQAQAIAHQ 0
MFNSKGAQC 0
LSVAAECFK 0
QAAITTTPY 0
KHMWNFVSG 0
YRLGPVQNE 0
LEDGINFAT 0
CALPPRGAP 0
NEGKRYYYL 0
NCDDSLNTG 0
QGWGPLTDA 0
ASIRSHVDL 0
TLHSYSPVE 0
ACGDILCGL 0
PNIRTGNRT 0
YDVIICDEC 0
GASIAGHVK 0
ETRTAPQDA 0
RPPGGRWFG 0
LDPTFSIET 0
TRDATTPLA 0
LGSEGEIPF 0
HSTTELAIL 0
ELVDANLLW 0
PQTLFDIIA 0
AAIGGVGLG 0
VGWALKWEF 0
YPSLIFDIT 0
LVRLKPTLH 0
GHLTGHRMA 0
LPPRGAPPV 0
SGGPVMCPS 0
RPLDFEMYG 0
AAGTHGIGW 0
FLVGQAFTF 0
VTEQDIRVE 0
PLLARGSRD 0
MGGKYFQMI 0
TASKVPPSP 0
QGLNFSYLT 0
SCLIHPAAS 0
SSAFVVSGL 0
VKASSVCGP 0
PSPGGESDS 0
FSPMEIKVI 0
TTDAKGAPT 0
SVARDNEGK 0
LRAYLSTPG 0
MCPSGHVAG 0
MSTLPKPQR 0
CSLYPGHLT 0
FTFRPRRHQ 0
AALQVWVPP 0
CGSADLYLV 0
WINEDYPSP 0
CVQDGNKTT 0
AVFLVGQAF 0
AVTHTVGSS 0
DAKGAPTYT 0
AARAAGLRN 0
KSLRPPGGR 0
VAGIFRAAV 0
AQGYNVLVL 0
QSSSAFVVS 0
GKYFQMIIL 0
TDAKGAPTY 0
SSGVDTQSS 0
LDFEMYGAT 0
HRFTAACNW 0
DVIQKLSTA 0
LYRLGPVQN 0
TIWVRMVMM 0
TATQTFLGT 0
ALFGFFTLS 0
PRTCANMWY 0
TSNESDLFC 0
TGRGRLGTY 0
QHPLLHSTT 0
GAPPCNIYG 0
SYLTAYQAT 0
HLAGPQSSS 0
TRTAPQDAV 0
SQTKQQGLN 0
VGLGRVLLD 0
KNGSMRLAG 0
RTIQLDGSN 0
PPAVPQSYQ 0
LCMLVRSVM 0
FQMIILSVG 0
LLVGAATMC 0
EDRATLRAF 0
TCGSADLYL 0
PCETVKASS 0
SLYPGHLTG 0
NCSLYPGHL 0
GGSTSNESD 0
IGWYLVVFC 0
VGGFEHRFT 0
GWPAPPGAK 0
FNTYLYDHL 0
WHKHMWNFV 0
GVICAAILR 0
DDKPYCWHY 0
DSTVTEQDI 0
GDMCGAVFL 0
SFPSSEPRG 0
WTPVTPTVA 0
KKPPKYPPA 0
EMWKCLVRL 0
ALGSEGEIP 0
ARLGREVLL 0
IGGVGLGRV 0
KEKVLGLLQ 0
LNFSYLTAY 0
TSTWVLLGG 0
MEECSQAAP 0
DLLEDTTTP 0
CLVRLKPTL 0
LSTQARSPS 0
SPQQRVERL 0
GVLALFGFF 0
LFCPTDCFR 0
CQVPAAEFF 0
HVRGKLVPL 0
ATNWQKLEA 0
TELAILPCS 0
IHPAASLEW 0
SYAIGSQLP 0
ALQFIPVET 0
DILCGLPVS 0
CRCEAALQV 0
ASKVPPSPG 0
YITGATEDG 0
AVIEPIVAT 0
NWQKLEAFW 0
PPPSWDEMW 0
FLLALFSCL 0
IMGGEFPTA 0
QPRERRQPI 0
ATEDGLKCP 0
PIVATNWQK 0
MFSGVDAVT 0
PRPLACLKG 0
VQDGNKTTC 0
RFTAACNWT 0
GSTSNESDL 0
KALQFIPVE 0
LMISQAEAA 0
FIPVETLST 0
TPTVAVKYV 0
GLNFSYLTA 0
IPSAGDVVV 0
SLIFDITKL 0
NITGPSDDK 0
CPSLNYTRA 0
VPQSYQVGY 0
WRGDGVMST 0
RLCMLVRSV 0
GRWFGCTWM 0
VAVEQYVDF 0
YGGGGSTSN 0
AAECFKKPP 0
APVGGVARA 0
MRTFVGGFE 0
VFLLKSLRP 0
PQDAVSRSQ 0
LVPPHSARS 0
AYVAQGYNV 0
NFSYLTAYQ 0
VTRDADVIP 0
RCDIEDRDR 0
MCGAVFLVG 0
TSLLYPSLI 0
FPTAEDMVN 0
YDAGCSWYD 0
LPQTLFDII 0
AHVLVRLCM 0
PSWDEMWKC 0
YAIGSQLPC 0
PPRPCETVK 0
DYNPPLLDR 0
RRVGDFHYI 0
YGKAIPIAQ 0
KASSVCGPV 0
ILCGLPVSA 0
TCQTHRPHP 0
VIQKLSTAT 0
ICRCEAALQ 0
GAPPVPPPR 0
TCWTPVTPT 0
ATLGFGSFM 0
TATMGSAYG 0
KATCQTHRP 0
AFTFRPRRH 0
TRGVAKALQ 0
DKEVLYQQY 0
AHWGILAGL 0
PWYKHWIGR 0
RLGREVLLG 0
WKAPDYEPP 0
LLSPRPLAC 0
KPITYFRQG 0
EYTTGPSTP 0
STPCPSLNY 0
QTHRPHPDA 0
TGFIAGLFY 0
LDRPLDFEM 0
NPAVASLMA 0
GAVFLVGQA 0
EVLYQQYDE 0
LDVSVIPSA 0
VGRWFNTYL 0
LTSMLRDPS 0
GSGMVGWAL 0
KGAPTYTWG 0
HLDFWESVF 0
PRGAPPVPP 0
VPDKEVLYQ 0
GAAIGGVGL 0
ALWLMLMIS 0
TGLWSLALL 0
DHYKTALKE 0
ADLEVTTST 0
SKKTPLGFS 0
PGHLTGHRM 0
SNESDLFCP 0
DSLNTGFIA 0
MSADLEVTT 0
PGNPAVASL 0
QDGNKTTCW 0
QNLQLVNTN 0
GTIVTSLTG 0
RSKFGYSAK 0
IEEACALVP 0
ATRGITGLF 0
GEFPTAEDM 0
IPVETLSTQ 0
WQKLEAFWH 0
DSVIDCNVA 0
PCGASIAGH 0
TSMLRDPSH 0
RGAPPVPPP 0
CAAWHVRGK 0
AAWHVRGKL 0
PYFVRAHVL 0
AECFKKPPK 0
RVERLLKMW 0
EEQSVVCCS 0
DIIAGAHWG 0
PSTPCPSLN 0
IAGLFYYHK 0
GLAGAAIGG 0
APTIWVRMV 0
ILDSFEPLR 0
SKVPPSPGG 0
SSCKPITYF 0
DPVKGGRKP 0
IMPALPGLP 0
LLEDTTTPI 0
GNTITCYIK 0
ATCQTHRPH 0
PAVPQSYQV 0
EMYGATYSV 0
LLDILAGYG 0
KVPAAYVAQ 0
LTVTSLLRR 0
LEDTTTPIP 0
PSSEPRGED 0
QEILDRPLD 0
FTLSPWYKH 0
DDAELSVAA 0
NVSVARDNE 0
RATLRAFTE 0
IRSHVDLLV 0
LNYTRALWR 0
CNLEPEAKK 0
LFGFFTLSP 0
PRGEDSSSS 0
FTPMPALST 0
NPPLLDRWK 0
ATMGSAYGF 0
GAPVGGVAR 0
VAHVLRLPQ 0
STVSDNEEQ 0
DLSCDSWST 0
PPRRKRTIQ 0
KVISSLTER 0
SDLFCPTDC 0
RQNLQLVNT 0
FSDNSTPPA 0
VTGEVQVLS 0
KRALYDVIQ 0
NLQLVNTNG 0
CHAQDATSI 0
LYCGGPMFN 0
YKHWIGRLM 0
VIPSAGDVV 0
GYKGVWRGD 0
TTELAILPC 0
FQYSPQQRV 0
DWVCIMLSD 0
KGVWRGDGV 0
DWLRTIWDW 0
LEVTTSTWV 0
FRPRRHQTV 0
GIGWYLVVF 0
LYVLTNDCP 0
SAKDVRSLS 0
VVFCAAWHV 0
STVTEQDIR 0
AELSVAAEC 0
IRTGNRTVT 0
RGDGVMSTR 0
CDEIASKLR 0
ATYSRCGAG 0
LRLPQTLFD 0
RTIWDWVCI 0
KGAQCGYRR 0
LQRATQQQA 0
ETDDAELSV 0
GVMSTRCPC 0
HLTGHRMAW 0
RAETDDAEL 0
CCNLEPEAK 0
SPSFSDNST 0
EDSSSSGVD 0
RLGTYRYVT 0
TSSRSASQR 0
AALAEKSFP 0
TPMPALSTG 0
GPMFNSKGA 0
NMWYGTFPI 0
LVGAATMCS 0
SPLTTNQTL 0
IAGAHWGIL 0
PDKEVLYQQ 0
TTTPYFVRA 0
LRAETDDAE 0
VRAHVLVRL 0
KAIPIAQLK 0
TKVPAAYVA 0
FWHKHMWNF 0
SITVPHSNI 0
FTASVTSPL 0
EQSVVCCSM 0
TVTEQDIRV 0
NESDLFCPT 0
DHLAPMQHW 0
SPMEIKVIT 0
FKMRTFVGG 0
PPLLARGSR 0
WKCLVRLKP 0
HVLRLPQTL 0
AVEQYVDFS 0
CDSWSTVSD 0
EDYPSPCSG 0
PPGSITVPH 0
PVMCPSGHV 0
GSRDGVILL 0
DTQSSTASK 0
SLLSPRPLA 0
RPCETVKAS 0
VDPVKGGRK 0
FGFFTLSPW 0
GATYSVTPL 0
DRPLDFEMY 0
TASVTSPLT 0
TLFDIIAGA 0
GGFEHRFTA 0
LHTPGCIPC 0
LHSTTELAI 0
LFGTIVTSL 0
NSYAIGSQL 0
LLHSTTELA 0
GFQYSPQQR 0
PCTCGSADL 0
IWDWVCIML 0
GWYLVVFCA 0
VFCVDPVKG 0
VGSSSASAT 0
AITTTPYFV 0
HLAPMQHWA 0
PPSPGGESD 0
LSCDSWSTV 0
ECFKKPPKY 0
CVDPVKGGR 0
RMLTIEEAC 0
ALNCDDSLN 0
AAEFFTEVD 0
IPIAQLKGG 0
IFLLALFSC 0
YQCCNLEPE 0
VTPGERPSG 0
WNQYTICRC 0
GSRTLAGVK 0
PPLLDRWKA 0
KKKCDEIAS 0
MWYGTFPIN 0
AYAWSGEDS 0
TGAKLTYST 0
GYNVLVLNP 0
FGNTITCYI 0
GAATMCSAL 0
IMLSDFKTW 0
LLTSLLYPS 0
DVFLLKSLR 0
LHSYSPVEL 0
SGLAGAAIG 0
EIASKLRGM 0
SMRLAGPRT 0
AGLRNPDFL 0
LGLLQRATQ 0
EATYSRCGA 0
DNEEQSVVC 0
AAGLKDLAV 0
REMGWRLLA 0
PTFSIETRT 0
YGFQYSPQQ 0
AHQFKEKVL 0
RNTSGLYVL 0
VTPTVAVKY 0
NFATGNLPG 0
LCGLPVSAR 0
NVSAALAAL 0
KPLLRDEIT 0
LRKLGCPPL 0
YLTAYQATV 0
CGASIAGHV 0
TLAGVKHPA 0
APYIEQAQA 0
QLVNTNGSW 0
NFTLFKMRT 0
PQQRVERLL 0
PFISCQKGY 0
FTAACNWTR 0
LTSLLYPSL 0
GEDSSSSGV 0
TMGSAYGFQ 0
TPYFVRAHV 0
VATNWQKLE 0
ANMWYGTFP 0
FFTLSPWYK 0
YFQMIILSV 0
LSQTKQQGL 0
DLEVTTSTW 0
LARGSRDGV 0
SGVDTQSST 0
MLMISQAEA 0
QWINEDYPS 0
WPAPPGAKS 0
TSKKTPLGF 0
PRRKRTIQL 0
ALITPCSAE 0
EPRGEDSSS 0
HPEATYSRC 0
SYSPVELNR 0
AATMCSALY 0
VILLTSLLY 0
SADLYLVTR 0
VLALFGFFT 0
MLTIEEACA 0
GLPFISCQK 0
IVATNWQKL 0
AWSGEDSAT 0
GNKTTCWTP 0
EPEAKKVIS 0
TGNRTVTTG 0
SFEPLRAET 0
SATRGITGL 0
LLPQRAYAW 0
KTKRNTIRR 0
LRDEITFMV 0
LYPGHLTGH 0
YCGGPMFNS 0
YVAQGYNVL 0
ARAAGLRNP 0
CFKKPPKYP 0
VSDNEEQSV 0
QYSPQQRVE 0
GRGRLGTYR 0
GLFGTIVTS 0
SKAVNQIRS 0
SGDWLRTIW 0
TDANITGPS 0
GPVQNETCL 0
DAELSVAAE 0
RPLACLKGS 0
QSSTASKVP 0
KCDEIASKL 0
VEQYVDFSL 0
TGLFSPGSR 0
ATQQQAVIE 0
EQHPLLHST 0
GSFMSRAYG 0
IYQCCNLEP 0
PCVQDGNKT 0
SEPRGEDSS 0
GAHWGILAG 0
VRSVMGGKY 0
MEIKVITWG 0
VSVARDNEG 0
TTTPIPTTI 0
WLMLMISQA 0
LKPTLHGPT 0
FEHRFTAAC 0
SLDPTFSIE 0
NLVYSTSSR 0
EMEECSQAA 0
SSSASATRG 0
GNPAVASLM 0
DLFCPTDCF 0
KYVGATTAS 0
TRGERCDIE 0
QVPAAEFFT 0
ETVKASSVC 0
YRYVTPGER 0
LAALAEKSF 0
SLTVTSLLR 0
KLGCPPLRA 0
NETCLTHPI 0
WVCIMLSDF 0
MWWNQYTIC 0
PAVASLMAF 0
EIKVITWGA 0
YSMQGNWAK 0
WGPLTDANI 0
QQRVERLLK 0
VLLLPQRAY 0
FSLDPTFSI 0
EVRRVGDFH 0
LACLKGSSG 0
EQDIRVEEE 0
WWNQYTICR 0
IEQAQAIAH 0
SSTASKVPP 0
NYTRALWRV 0
VDAVTHTVG 0
EDTTTPIPT 0
ARVTALLSS 0
VVVGTTDAK 0
NGSMRLAGP 0
ALWRVAANS 0
LVVFCAAWH 0
EFVVLVFLL 0
TTPYFVRAH 0
GGKYFQMII 0
ATPPGSITV 0
PLYLIQAAI 0
TVPHSNIEE 0
YIEQAQAIA 0
HYPPRPCET 0
SSEPRGEDS 0
EILDRPLDF 0
DPDLSCDSW 0
HKHMWNFVS 0
AIGGVGLGR 0
QTCNCSLYP 0
NKTTCWTPV 0
LLKSLRPPG 0
LIQAAITTT 0
WESVFTGLT 0
ASLEWRNTS 0
YLYGVGSGM 0
SLTGLWSLA 0
FKTWLSAKI 0
ARDNEGKRY 0
LRTIWDWVC 0
VEVRRVGDF 0
VERLLKMWT 0
QTKQQGLNF 0
TLSTQARSP 0
LYQQYDEME 0
FIAGLFYYH 0
AKDVRSLSS 0
RTFVGGFEH 0
LTIEEACAL 0
GCIPCVQDG 0
AKIMPALPG 0
RAYGIDPNI 0
HQTVQTCNC 0
LVPLITYSL 0
ADARVCVAL 0
HYITGATED 0
PLTTNQTLF 0
AVKYVGATT 0
LAAYCLSVG 0
QKLEAFWHK 0
ATYSVTPLD 0
SGVDAVTHT 0
PQRLSSCKP 0
SSKAVNQIR 0
TRCPCGASI 0
RSHVDLLVG 0
RATQQQAVI 0
APQDAVSRS 0
SCKPITYFR 0
SIRSHVDLL 0
FTLHSYSPV 0
SADLEVTTS 0
STASLLSPR 0
RVTALLSSL 0
ITVPHSNIE 0
YAWSGEDSA 0
VILDSFEPL 0
YEPPTVHGC 0
RVKARMLTI 0
ITGPSDDKP 0
ASIAGHVKN 0
VISSLTERL 0
CRASGVLPT 0
EIYQCCNLE 0
KARMLTIEE 0
YSPQQRVER 0
LSTPGLPVC 0
APPPSWDEM 0
LAGPQSSSA 0
INFATGNLP 0
NQYTICRCE 0
QRQKKVTFD 0
PAAYVAQGY 0
DDYREMGWR 0
GWGPLTDAN 0
TRGITGLFS 0
STTELAILP 0
SFTPMPALS 0
TVNFTLFKM 0
DMCGAVFLV 0
PSLIFDITK 0