PSRTTRIR 0
YPNVSVSV 0
TRGRDAHY 0
TTRIRVSP 0
RVSPVAEN 0
FSATTTTT 0
FSGSYSSG 0
ENGRNSGA 0
IRVSPVAE 0
SHLGFWQE 0
PVTSHVTF 0
TSHVTFMT 0
YNAEIRTH 0
SGSGEEER 0
LLILCLCL 0
RTTRIRVS 0
THLYILWA 0
MNCSYENM 0
TSASGSGE 0
SPVAENGR 0
RPVTSHVT 0
RIRVSPVA 0
PSSEYPNV 0
ILYLCVPR 0
PFSATTTT 0
PTYRSHLG 0
LYILWAVG 0
ATTTTTRG 0
LVLILYLC 0
RTHLYILW 0
ASGSGEDA 0
LTDALISA 0
TTTRGRDA 0
SPSSEYPN 0
NMTALEAV 0
FMTQSVQA 0
SSEYPNVS 0
TTRGRDAH 0
EYPNVSVS 0
SGSYSSGE 0
RLAAGSPS 0
GSGEDAID 0
LGLVLILY 0
ALEAVSLN 0
EPSRTTRI 0
SGEDAIDE 0
CHANCPTY 0
LILCLCLV 0
ANCPTYRS 0
DWLGRMNC 0
GEPSRTTR 0
PVAENGRN 0
IPVALLIL 0
VPFSATTT 0
GEDAIDES 0
PRCRRKKP 0
SGEPSRTT 0
ELTDALIS 0
DAIDESGS 0
LVACHANC 0
DTSASGSG 0
ACHANCPT 0
SHVTFMTQ 0
NAEIRTHL 0
VLILYLCV 0
TTTTTRGR 0
CRRKKPYI 0
YILWAVGL 0
NCPTYRSH 0
YLCVPRCR 0
EEERPVTS 0
SVSVEDTS 0
HVTFMTQS 0
SASGSGED 0
DALISAFS 0
SGQVYQDW 0
SYENMTAL 0
ILWAVGLL 0
RDAHYNAE 0
LEAVSLNG 0
IRTEIPVA 0
DESGSGEE 0
GQVYQDWL 0
RCRRKKPY 0
MSSTQIRT 0
AEIRTHLY 0
PVALLILC 0
RMNCSYEN 0
HYNAEIRT 0
VSVSVEDT 0
EIRTHLYI 0
GSPSSEYP 0
SLNGTRLA 0
QVYQDWLG 0
SRTTRIRV 0
RGRDAHYN 0
LILYLCVP 0
GTRLAAGS 0
SSTQIRTE 0
SEYPNVSV 0
NGRNSGAS 0
CVPRCRRK 0
TRIRVSPV 0
GASNRVPF 0
LYLCVPRC 0
VSPVAENG 0
VEDTSASG 0
SYSSGEPS 0
RNSGASNR 0
GRNSGASN 0
GSYSSGEP 0
GEEERPVT 0
EDTSASGS 0
TALEAVSL 0
LISAFSGS 0
RTEIPVAL 0
HLYILWAV 0
YSSGEPSR 0
DAHYNAEI 0
SGSGEDAI 0
YRSHLGFW 0
LNGTRLAA 0
SNRVPFSA 0
LCLCLVAC 0
LGFWQEGW 0
GSGEEERP 0
IDESGSGE 0
ILCLCLVA 0
VACHANCP 0
PNVSVSVE 0
SATTTTTR 0
SGASNRVP 0
LGRMNCSY 0
NVSVSVED 0
GRDAHYNA 0
ALISAFSG 0
TTELTDAL 0
TYRSHLGF 0
VSVEDTSA 0
SVEDTSAS 0
ASNRVPFS 0
HANCPTYR 0
GRMNCSYE 0
CLCLVACH 0
CPTYRSHL 0
TEIPVALL 0
WLGRMNCS 0
SAFSGSYS 0
TDALISAF 0
RVPFSATT 0
ESGSGEEE 0
TELTDALI 0
TQIRTEIP 0
YENMTALE 0
VSLNGTRL 0
IRTHLYIL 0
SSGEPSRT 0
EAVSLNGT 0
WSGQVYQD 0
AIDESGSG 0
AENGRNSG 0
VALLILCL 0
QDWLGRMN 0
EDAIDESG 0
VAENGRNS 0
AAGSPSSE 0
QIRTEIPV 0
AFSGSYSS 0
NSGASNRV 0
CSYENMTA 0
VTSHVTFM 0
RRKKPYIV 0
TRLAAGSP 0
ALLILCLC 0
LCLVACHA 0
STQIRTEI 0
GLVLILYL 0
NCSYENMT 0
HLGFWQEG 0
AGSPSSEY 0
ISAFSGSY 0
ERPVTSHV 0
YQDWLGRM 0
TFMTQSVQ 0
LCVPRCRR 0
TTTTRGRD 0
RSHLGFWQ 0
NRVPFSAT 0
ENMTALEA 0
AHYNAEIR 0
VTFMTQSV 0
VPRCRRKK 0
MTALEAVS 0
LAAGSPSS 0
EIPVALLI 0
CLVACHAN 0
NGTRLAAG 0
TYRSHLGFW 0
ELTDALISA 0
SGSGEEERP 0
SGEDAIDES 0
TTTTTRGRD 0
GEDAIDESG 0
HLGFWQEGW 0
NCPTYRSHL 0
TQIRTEIPV 0
IRTEIPVAL 0
CLCLVACHA 0
SASGSGEDA 0
RPVTSHVTF 0
TTRIRVSPV 0
RVPFSATTT 0
SGQVYQDWL 0
DAHYNAEIR 0
YSSGEPSRT 0
SYSSGEPSR 0
PVAENGRNS 0
GRMNCSYEN 0
GSPSSEYPN 0
RIRVSPVAE 0
VAENGRNSG 0
SSEYPNVSV 0
SNRVPFSAT 0
CVPRCRRKK 0
ALISAFSGS 0
MSSTQIRTE 0
VPFSATTTT 0
SPSSEYPNV 0
AENGRNSGA 0
LNGTRLAAG 0
PSSEYPNVS 0
VSLNGTRLA 0
TELTDALIS 0
SGSYSSGEP 0
RMNCSYENM 0
NMTALEAVS 0
EYPNVSVSV 0
TRGRDAHYN 0
CRRKKPYIV 0
SHVTFMTQS 0
LGRMNCSYE 0
RNSGASNRV 0
HYNAEIRTH 0
SATTTTTRG 0
SVSVEDTSA 0
TRLAAGSPS 0
HLYILWAVG 0
RCRRKKPYI 0
SVEDTSASG 0
GQVYQDWLG 0
TEIPVALLI 0
RTHLYILWA 0
YNAEIRTHL 0
LLILCLCLV 0
LYILWAVGL 0
IDESGSGEE 0
AIDESGSGE 0
SGEPSRTTR 0
LISAFSGSY 0
EIRTHLYIL 0
VEDTSASGS 0
VSPVAENGR 0
ILCLCLVAC 0
ESGSGEEER 0
RTEIPVALL 0
AGSPSSEYP 0
SAFSGSYSS 0
NCSYENMTA 0
ENMTALEAV 0
ISAFSGSYS 0
RGRDAHYNA 0
NGTRLAAGS 0
SGSGEDAID 0
GRNSGASNR 0
TDALISAFS 0
YILWAVGLL 0
FSGSYSSGE 0
GSYSSGEPS 0
ASGSGEDAI 0
LCVPRCRRK 0
YPNVSVSVE 0
TTTTRGRDA 0
WLGRMNCSY 0
SSGEPSRTT 0
VSVSVEDTS 0
YENMTALEA 0
LCLCLVACH 0
STQIRTEIP 0
SHLGFWQEG 0
DWLGRMNCS 0
TTELTDALI 0
ENGRNSGAS 0
PFSATTTTT 0
SEYPNVSVS 0
IRVSPVAEN 0
EPSRTTRIR 0
TTRGRDAHY 0
PTYRSHLGF 0
NRVPFSATT 0
ANCPTYRSH 0
YRSHLGFWQ 0
PRCRRKKPY 0
LEAVSLNGT 0
GTRLAAGSP 0
VALLILCLC 0
FSATTTTTR 0
LGLVLILYL 0
VLILYLCVP 0
RTTRIRVSP 0
DAIDESGSG 0
EDAIDESGS 0
TRIRVSPVA 0
SSTQIRTEI 0
SLNGTRLAA 0
SPVAENGRN 0
ALEAVSLNG 0
VACHANCPT 0
CSYENMTAL 0
ATTTTTRGR 0
ERPVTSHVT 0
LVACHANCP 0
TSASGSGED 0
ASNRVPFSA 0
AEIRTHLYI 0
NVSVSVEDT 0
PVTSHVTFM 0
VSVEDTSAS 0
LILYLCVPR 0
GEEERPVTS 0
PVALLILCL 0
TFMTQSVQA 0
PSRTTRIRV 0
EIPVALLIL 0
DALISAFSG 0
LTDALISAF 0
LCLVACHAN 0
GASNRVPFS 0
AHYNAEIRT 0
DTSASGSGE 0
NSGASNRVP 0
RDAHYNAEI 0
EDTSASGSG 0
CPTYRSHLG 0
NAEIRTHLY 0
NGRNSGASN 0
RVSPVAENG 0
YLCVPRCRR 0
MTALEAVSL 0
TALEAVSLN 0
VTFMTQSVQ 0
ILYLCVPRC 0
HANCPTYRS 0
LVLILYLCV 0
IRTHLYILW 0
HVTFMTQSV 0
MNCSYENMT 0
VPRCRRKKP 0
CLVACHANC 0
GRDAHYNAE 0
AAGSPSSEY 0
YQDWLGRMN 0
AFSGSYSSG 0
IPVALLILC 0
GSGEDAIDE 0
ALLILCLCL 0
TTTRGRDAH 0
VTSHVTFMT 0
LILCLCLVA 0
LYLCVPRCR 0
DESGSGEEE 0
THLYILWAV 0
GEPSRTTRI 0
ACHANCPTY 0
WSGQVYQDW 0
QIRTEIPVA 0
CHANCPTYR 0
SGASNRVPF 0
SRTTRIRVS 0
LAAGSPSSE 0
GLVLILYLC 0
SYENMTALE 0
QDWLGRMNC 0
TSHVTFMTQ 0
PNVSVSVED 0
RSHLGFWQE 0
RTEIPVALLI 0
PFSATTTTTR 0
AENGRNSGAS 0
NRVPFSATTT 0
WLGRMNCSYE 0
MNCSYENMTA 0
ELTDALISAF 0
TRIRVSPVAE 0
EIPVALLILC 0
TSHVTFMTQS 0
ERPVTSHVTF 0
LGRMNCSYEN 0
LAAGSPSSEY 0
RSHLGFWQEG 0
RLAAGSPSSE 0
SAFSGSYSSG 0
RTHLYILWAV 0
ALEAVSLNGT 0
LILYLCVPRC 0
RPVTSHVTFM 0
ENMTALEAVS 0
FSGSYSSGEP 0
DAHYNAEIRT 0
ANCPTYRSHL 0
EPSRTTRIRV 0
ESGSGEEERP 0
SHVTFMTQSV 0
TRGRDAHYNA 0
HYNAEIRTHL 0
ALLILCLCLV 0
NVSVSVEDTS 0
GEPSRTTRIR 0
SEYPNVSVSV 0
LNGTRLAAGS 0
PRCRRKKPYI 0
IRVSPVAENG 0
RIRVSPVAEN 0
ALISAFSGSY 0
TTTTRGRDAH 0
LGLVLILYLC 0
HLYILWAVGL 0
CLVACHANCP 0
LYLCVPRCRR 0
EIRTHLYILW 0
RGRDAHYNAE 0
GASNRVPFSA 0
VSPVAENGRN 0
NCPTYRSHLG 0
SGQVYQDWLG 0
VALLILCLCL 0
GTRLAAGSPS 0
SASGSGEDAI 0
DESGSGEEER 0
NSGASNRVPF 0
TTRGRDAHYN 0
ENGRNSGASN 0
SVSVEDTSAS 0
SGEPSRTTRI 0
SATTTTTRGR 0
VAENGRNSGA 0
VTFMTQSVQA 0
EYPNVSVSVE 0
STQIRTEIPV 0
SGEDAIDESG 0
IRTEIPVALL 0
DWLGRMNCSY 0
SHLGFWQEGW 0
AGSPSSEYPN 0
NGRNSGASNR 0
SSTQIRTEIP 0
SPSSEYPNVS 0
SSGEPSRTTR 0
VSLNGTRLAA 0
ASNRVPFSAT 0
GRMNCSYENM 0
SGASNRVPFS 0
QDWLGRMNCS 0
YPNVSVSVED 0
LVLILYLCVP 0
TTTRGRDAHY 0
GEDAIDESGS 0
ATTTTTRGRD 0
ASGSGEDAID 0
NCSYENMTAL 0
GRDAHYNAEI 0
VPFSATTTTT 0
QIRTEIPVAL 0
VTSHVTFMTQ 0
HANCPTYRSH 0
LCLCLVACHA 0
TALEAVSLNG 0
VSVSVEDTSA 0
FSATTTTTRG 0
SYENMTALEA 0
ACHANCPTYR 0
PNVSVSVEDT 0
SVEDTSASGS 0
NGTRLAAGSP 0
LTDALISAFS 0
EDAIDESGSG 0
CVPRCRRKKP 0
YLCVPRCRRK 0
SLNGTRLAAG 0
THLYILWAVG 0
GLVLILYLCV 0
RCRRKKPYIV 0
RDAHYNAEIR 0
IDESGSGEEE 0
PVALLILCLC 0
PSSEYPNVSV 0
AEIRTHLYIL 0
TTELTDALIS 0
SYSSGEPSRT 0
PVAENGRNSG 0
LILCLCLVAC 0
CSYENMTALE 0
GSYSSGEPSR 0
LVACHANCPT 0
IPVALLILCL 0
TTTTTRGRDA 0
AIDESGSGEE 0
LLILCLCLVA 0
DALISAFSGS 0
TRLAAGSPSS 0
LISAFSGSYS 0
LYILWAVGLL 0
ILYLCVPRCR 0
TYRSHLGFWQ 0
SPVAENGRNS 0
WSGQVYQDWL 0
TQIRTEIPVA 0
MTALEAVSLN 0
RVPFSATTTT 0
NAEIRTHLYI 0
AHYNAEIRTH 0
IRTHLYILWA 0
RMNCSYENMT 0
DTSASGSGED 0
VACHANCPTY 0
TEIPVALLIL 0
YNAEIRTHLY 0
LCLVACHANC 0
GRNSGASNRV 0
NMTALEAVSL 0
VEDTSASGSG 0
TELTDALISA 0
GSPSSEYPNV 0
YENMTALEAV 0
CLCLVACHAN 0
AAGSPSSEYP 0
LCVPRCRRKK 0
ISAFSGSYSS 0
RTTRIRVSPV 0
GSGEDAIDES 0
AFSGSYSSGE 0
PVTSHVTFMT 0
YSSGEPSRTT 0
ILCLCLVACH 0
CPTYRSHLGF 0
PTYRSHLGFW 0
SSEYPNVSVS 0
YQDWLGRMNC 0
TSASGSGEDA 0
DAIDESGSGE 0
RNSGASNRVP 0
VPRCRRKKPY 0
YRSHLGFWQE 0
VLILYLCVPR 0
SGSYSSGEPS 0
SGSGEDAIDE 0
TTRIRVSPVA 0
HVTFMTQSVQ 0
PSRTTRIRVS 0
SNRVPFSATT 0
TDALISAFSG 0
RVSPVAENGR 0
VSVEDTSASG 0
EDTSASGSGE 0
MSSTQIRTEI 0
SRTTRIRVSP 0
CHANCPTYRS 0
SVEDTSASGSG 0
LVACHANCPTY 0
SSTQIRTEIPV 0
PRCRRKKPYIV 0
PTYRSHLGFWQ 0
SGSYSSGEPSR 0
TTELTDALISA 0
SSGEPSRTTRI 0
AIDESGSGEEE 0
EPSRTTRIRVS 0
SPVAENGRNSG 0
GLVLILYLCVP 0
SYSSGEPSRTT 0
THLYILWAVGL 0
SNRVPFSATTT 0
LAAGSPSSEYP 0
YNAEIRTHLYI 0
LCLCLVACHAN 0
YLCVPRCRRKK 0
RDAHYNAEIRT 0
SVSVEDTSASG 0
SHVTFMTQSVQ 0
DALISAFSGSY 0
TRIRVSPVAEN 0
PVALLILCLCL 0
YRSHLGFWQEG 0
IDESGSGEEER 0
FSGSYSSGEPS 0
LGRMNCSYENM 0
VLILYLCVPRC 0
SPSSEYPNVSV 0
NCPTYRSHLGF 0
DTSASGSGEDA 0
AEIRTHLYILW 0
ASGSGEDAIDE 0
TYRSHLGFWQE 0
RMNCSYENMTA 0
SEYPNVSVSVE 0
LILYLCVPRCR 0
SLNGTRLAAGS 0
PFSATTTTTRG 0
NVSVSVEDTSA 0
TRLAAGSPSSE 0
TTRGRDAHYNA 0
ENGRNSGASNR 0
IRTEIPVALLI 0
TDALISAFSGS 0
LVLILYLCVPR 0
HANCPTYRSHL 0
ACHANCPTYRS 0
TRGRDAHYNAE 0
NMTALEAVSLN 0
QIRTEIPVALL 0
ALLILCLCLVA 0
EIRTHLYILWA 0
TELTDALISAF 0
LGLVLILYLCV 0
ERPVTSHVTFM 0
TTTRGRDAHYN 0
LISAFSGSYSS 0
RNSGASNRVPF 0
CSYENMTALEA 0
GSGEDAIDESG 0
ATTTTTRGRDA 0
SGASNRVPFSA 0
IRVSPVAENGR 0
VSLNGTRLAAG 0
CLCLVACHANC 0
LTDALISAFSG 0
SGEPSRTTRIR 0
CHANCPTYRSH 0
VEDTSASGSGE 0
SYENMTALEAV 0
DAHYNAEIRTH 0
GSYSSGEPSRT 0
ILCLCLVACHA 0
WLGRMNCSYEN 0
PSRTTRIRVSP 0
ALISAFSGSYS 0
GSPSSEYPNVS 0
HVTFMTQSVQA 0
TSHVTFMTQSV 0
SGEDAIDESGS 0
PVAENGRNSGA 0
NRVPFSATTTT 0
FSATTTTTRGR 0
GRDAHYNAEIR 0
TSASGSGEDAI 0
IPVALLILCLC 0
GEDAIDESGSG 0
GTRLAAGSPSS 0
ILYLCVPRCRR 0
SSEYPNVSVSV 0
AFSGSYSSGEP 0
DAIDESGSGEE 0
SGSGEDAIDES 0
TTRIRVSPVAE 0
MTALEAVSLNG 0
AHYNAEIRTHL 0
RPVTSHVTFMT 0
STQIRTEIPVA 0
ASNRVPFSATT 0
VSPVAENGRNS 0
EIPVALLILCL 0
VAENGRNSGAS 0
CVPRCRRKKPY 0
QDWLGRMNCSY 0
SAFSGSYSSGE 0
NCSYENMTALE 0
MNCSYENMTAL 0
EYPNVSVSVED 0
YSSGEPSRTTR 0
RTEIPVALLIL 0
RVSPVAENGRN 0
RLAAGSPSSEY 0
RSHLGFWQEGW 0
PNVSVSVEDTS 0
LCVPRCRRKKP 0
EDAIDESGSGE 0
YQDWLGRMNCS 0
SATTTTTRGRD 0
RIRVSPVAENG 0
HYNAEIRTHLY 0
MSSTQIRTEIP 0
TALEAVSLNGT 0
VALLILCLCLV 0
RGRDAHYNAEI 0
YPNVSVSVEDT 0
SRTTRIRVSPV 0
VACHANCPTYR 0
DWLGRMNCSYE 0
AGSPSSEYPNV 0
NGRNSGASNRV 0
NSGASNRVPFS 0
VPFSATTTTTR 0
RTHLYILWAVG 0
NAEIRTHLYIL 0
TTTTTRGRDAH 0
PSSEYPNVSVS 0
LCLVACHANCP 0
LILCLCLVACH 0
GRMNCSYENMT 0
ISAFSGSYSSG 0
SASGSGEDAID 0
VTSHVTFMTQS 0
CPTYRSHLGFW 0
TEIPVALLILC 0
GRNSGASNRVP 0
TTTTRGRDAHY 0
CLVACHANCPT 0
EDTSASGSGED 0
RTTRIRVSPVA 0
LLILCLCLVAC 0
LYLCVPRCRRK 0
GASNRVPFSAT 0
GEPSRTTRIRV 0
YENMTALEAVS 0
VSVSVEDTSAS 0
ELTDALISAFS 0
LNGTRLAAGSP 0
ENMTALEAVSL 0
IRTHLYILWAV 0
VSVEDTSASGS 0
TQIRTEIPVAL 0
ANCPTYRSHLG 0
AAGSPSSEYPN 0
DESGSGEEERP 0
HLYILWAVGLL 0
WSGQVYQDWLG 0
PVTSHVTFMTQ 0
NGTRLAAGSPS 0
VPRCRRKKPYI 0
AENGRNSGASN 0
RVPFSATTTTT 0
TDALISAFSGSY 0
QIRTEIPVALLI 0
EDTSASGSGEDA 0
LCLVACHANCPT 0
HYNAEIRTHLYI 0
EPSRTTRIRVSP 0
NMTALEAVSLNG 0
AFSGSYSSGEPS 0
RMNCSYENMTAL 0
VALLILCLCLVA 0
PNVSVSVEDTSA 0
SEYPNVSVSVED 0
AIDESGSGEEER 0
ISAFSGSYSSGE 0
THLYILWAVGLL 0
TTTTTRGRDAHY 0
PSRTTRIRVSPV 0
CLVACHANCPTY 0
PVTSHVTFMTQS 0
EDAIDESGSGEE 0
LILCLCLVACHA 0
STQIRTEIPVAL 0
GRNSGASNRVPF 0
ERPVTSHVTFMT 0
ATTTTTRGRDAH 0
SGSGEDAIDESG 0
TTTTRGRDAHYN 0
ASNRVPFSATTT 0
SGSYSSGEPSRT 0
ANCPTYRSHLGF 0
GTRLAAGSPSSE 0
TRGRDAHYNAEI 0
DAHYNAEIRTHL 0
AGSPSSEYPNVS 0
NCSYENMTALEA 0
TYRSHLGFWQEG 0
LVLILYLCVPRC 0
NVSVSVEDTSAS 0
TELTDALISAFS 0
EIPVALLILCLC 0
HANCPTYRSHLG 0
VSLNGTRLAAGS 0
LGLVLILYLCVP 0
NAEIRTHLYILW 0
TTRIRVSPVAEN 0
LCLCLVACHANC 0
GLVLILYLCVPR 0
SGEPSRTTRIRV 0
SLNGTRLAAGSP 0
NCPTYRSHLGFW 0
MTALEAVSLNGT 0
RTHLYILWAVGL 0
VTSHVTFMTQSV 0
LLILCLCLVACH 0
GEDAIDESGSGE 0
LNGTRLAAGSPS 0
SVSVEDTSASGS 0
TSHVTFMTQSVQ 0
YRSHLGFWQEGW 0
TRIRVSPVAENG 0
TQIRTEIPVALL 0
GSGEDAIDESGS 0
TSASGSGEDAID 0
RPVTSHVTFMTQ 0
GEPSRTTRIRVS 0
IDESGSGEEERP 0
FSATTTTTRGRD 0
NSGASNRVPFSA 0
IRVSPVAENGRN 0
SATTTTTRGRDA 0
TTTRGRDAHYNA 0
IRTHLYILWAVG 0
LCVPRCRRKKPY 0
YPNVSVSVEDTS 0
CVPRCRRKKPYI 0
SPVAENGRNSGA 0
SSGEPSRTTRIR 0
LTDALISAFSGS 0
YQDWLGRMNCSY 0
NGRNSGASNRVP 0
AENGRNSGASNR 0
SVEDTSASGSGE 0
NGTRLAAGSPSS 0
SNRVPFSATTTT 0
SHVTFMTQSVQA 0
PSSEYPNVSVSV 0
TEIPVALLILCL 0
RDAHYNAEIRTH 0
ELTDALISAFSG 0
YLCVPRCRRKKP 0
SPSSEYPNVSVS 0
RNSGASNRVPFS 0
CPTYRSHLGFWQ 0
RLAAGSPSSEYP 0
LILYLCVPRCRR 0
AHYNAEIRTHLY 0
GRDAHYNAEIRT 0
SYENMTALEAVS 0
EIRTHLYILWAV 0
VPRCRRKKPYIV 0
QDWLGRMNCSYE 0
ILYLCVPRCRRK 0
VPFSATTTTTRG 0
NRVPFSATTTTT 0
SRTTRIRVSPVA 0
PVAENGRNSGAS 0
TRLAAGSPSSEY 0
TTRGRDAHYNAE 0
ILCLCLVACHAN 0
SYSSGEPSRTTR 0
GRMNCSYENMTA 0
YNAEIRTHLYIL 0
IRTEIPVALLIL 0
PTYRSHLGFWQE 0
RTTRIRVSPVAE 0
DWLGRMNCSYEN 0
LVACHANCPTYR 0
CLCLVACHANCP 0
FSGSYSSGEPSR 0
YENMTALEAVSL 0
GSYSSGEPSRTT 0
LGRMNCSYENMT 0
VSPVAENGRNSG 0
IPVALLILCLCL 0
RVSPVAENGRNS 0
PFSATTTTTRGR 0
SSTQIRTEIPVA 0
SGASNRVPFSAT 0
MNCSYENMTALE 0
RVPFSATTTTTR 0
VLILYLCVPRCR 0
LAAGSPSSEYPN 0
SSEYPNVSVSVE 0
RGRDAHYNAEIR 0
ACHANCPTYRSH 0
DAIDESGSGEEE 0
LISAFSGSYSSG 0
VEDTSASGSGED 0
DTSASGSGEDAI 0
SGEDAIDESGSG 0
AEIRTHLYILWA 0
CSYENMTALEAV 0
VSVEDTSASGSG 0
YSSGEPSRTTRI 0
DALISAFSGSYS 0
RIRVSPVAENGR 0
EYPNVSVSVEDT 0
ENMTALEAVSLN 0
RTEIPVALLILC 0
ASGSGEDAIDES 0
CHANCPTYRSHL 0
MSSTQIRTEIPV 0
ENGRNSGASNRV 0
GASNRVPFSATT 0
AAGSPSSEYPNV 0
LYLCVPRCRRKK 0
VACHANCPTYRS 0
SASGSGEDAIDE 0
ALLILCLCLVAC 0
SAFSGSYSSGEP 0
WLGRMNCSYENM 0
VAENGRNSGASN 0
VSVSVEDTSASG 0
TTELTDALISAF 0
GSPSSEYPNVSV 0
ALISAFSGSYSS 0
PVALLILCLCLV 0
VSVEDTSASGSGE 0
NCSYENMTALEAV 0
LLILCLCLVACHA 0
NGRNSGASNRVPF 0
TDALISAFSGSYS 0
RTEIPVALLILCL 0
QDWLGRMNCSYEN 0
SGEPSRTTRIRVS 0
LNGTRLAAGSPSS 0
SYSSGEPSRTTRI 0
ASGSGEDAIDESG 0
PSSEYPNVSVSVE 0
GRNSGASNRVPFS 0
NMTALEAVSLNGT 0
NAEIRTHLYILWA 0
HYNAEIRTHLYIL 0
ACHANCPTYRSHL 0
LCVPRCRRKKPYI 0
YPNVSVSVEDTSA 0
AFSGSYSSGEPSR 0
AEIRTHLYILWAV 0
CVPRCRRKKPYIV 0
CSYENMTALEAVS 0
PFSATTTTTRGRD 0
SPVAENGRNSGAS 0
ALLILCLCLVACH 0
TRGRDAHYNAEIR 0
FSATTTTTRGRDA 0
STQIRTEIPVALL 0
DWLGRMNCSYENM 0
TTTTRGRDAHYNA 0
ERPVTSHVTFMTQ 0
VPFSATTTTTRGR 0
QIRTEIPVALLIL 0
MSSTQIRTEIPVA 0
VSLNGTRLAAGSP 0
YSSGEPSRTTRIR 0
NSGASNRVPFSAT 0
GRMNCSYENMTAL 0
LILCLCLVACHAN 0
ANCPTYRSHLGFW 0
TTRGRDAHYNAEI 0
CLVACHANCPTYR 0
TSASGSGEDAIDE 0
ALISAFSGSYSSG 0
SVSVEDTSASGSG 0
TELTDALISAFSG 0
GEPSRTTRIRVSP 0
RMNCSYENMTALE 0
FSGSYSSGEPSRT 0
DTSASGSGEDAID 0
LCLCLVACHANCP 0
TRLAAGSPSSEYP 0
SSTQIRTEIPVAL 0
AIDESGSGEEERP 0
LGLVLILYLCVPR 0
CHANCPTYRSHLG 0
LYLCVPRCRRKKP 0
CPTYRSHLGFWQE 0
PVTSHVTFMTQSV 0
VLILYLCVPRCRR 0
IRTHLYILWAVGL 0
TRIRVSPVAENGR 0
VSVSVEDTSASGS 0
WLGRMNCSYENMT 0
VEDTSASGSGEDA 0
ELTDALISAFSGS 0
GSYSSGEPSRTTR 0
ENMTALEAVSLNG 0
NGTRLAAGSPSSE 0
RDAHYNAEIRTHL 0
YLCVPRCRRKKPY 0
TTRIRVSPVAENG 0
YENMTALEAVSLN 0
MNCSYENMTALEA 0
TYRSHLGFWQEGW 0
DAIDESGSGEEER 0
AAGSPSSEYPNVS 0
SATTTTTRGRDAH 0
SYENMTALEAVSL 0
VACHANCPTYRSH 0
LTDALISAFSGSY 0
ENGRNSGASNRVP 0
AGSPSSEYPNVSV 0
GSPSSEYPNVSVS 0
ILYLCVPRCRRKK 0
LCLVACHANCPTY 0
TTELTDALISAFS 0
LVACHANCPTYRS 0
ISAFSGSYSSGEP 0
SGSYSSGEPSRTT 0
VSPVAENGRNSGA 0
GTRLAAGSPSSEY 0
AHYNAEIRTHLYI 0
RPVTSHVTFMTQS 0
IRTEIPVALLILC 0
SNRVPFSATTTTT 0
YQDWLGRMNCSYE 0
TQIRTEIPVALLI 0
TSHVTFMTQSVQA 0
LISAFSGSYSSGE 0
SEYPNVSVSVEDT 0
RLAAGSPSSEYPN 0
IPVALLILCLCLV 0
RVPFSATTTTTRG 0
EIRTHLYILWAVG 0
SRTTRIRVSPVAE 0
TEIPVALLILCLC 0
RVSPVAENGRNSG 0
NRVPFSATTTTTR 0
GRDAHYNAEIRTH 0
PSRTTRIRVSPVA 0
EYPNVSVSVEDTS 0
RIRVSPVAENGRN 0
VAENGRNSGASNR 0
TTTTTRGRDAHYN 0
RTTRIRVSPVAEN 0
PVAENGRNSGASN 0
TTTRGRDAHYNAE 0
GLVLILYLCVPRC 0
SASGSGEDAIDES 0
AENGRNSGASNRV 0
RTHLYILWAVGLL 0
ILCLCLVACHANC 0
CLCLVACHANCPT 0
PTYRSHLGFWQEG 0
PNVSVSVEDTSAS 0
SGSGEDAIDESGS 0
EDAIDESGSGEEE 0
LGRMNCSYENMTA 0
EIPVALLILCLCL 0
NVSVSVEDTSASG 0
SPSSEYPNVSVSV 0
LILYLCVPRCRRK 0
ATTTTTRGRDAHY 0
SSGEPSRTTRIRV 0
SGASNRVPFSATT 0
GASNRVPFSATTT 0
SGEDAIDESGSGE 0
DALISAFSGSYSS 0
YNAEIRTHLYILW 0
SSEYPNVSVSVED 0
LVLILYLCVPRCR 0
SVEDTSASGSGED 0
RNSGASNRVPFSA 0
ASNRVPFSATTTT 0
HANCPTYRSHLGF 0
EPSRTTRIRVSPV 0
SAFSGSYSSGEPS 0
PVALLILCLCLVA 0
GEDAIDESGSGEE 0
LAAGSPSSEYPNV 0
SLNGTRLAAGSPS 0
DAHYNAEIRTHLY 0
NCPTYRSHLGFWQ 0
EDTSASGSGEDAI 0
GSGEDAIDESGSG 0
RGRDAHYNAEIRT 0
VALLILCLCLVAC 0
VTSHVTFMTQSVQ 0
IRVSPVAENGRNS 0
HANCPTYRSHLGFW 0
VLILYLCVPRCRRK 0
NCPTYRSHLGFWQE 0
AGSPSSEYPNVSVS 0
VSVSVEDTSASGSG 0
RVSPVAENGRNSGA 0
NCSYENMTALEAVS 0
RIRVSPVAENGRNS 0
ISAFSGSYSSGEPS 0
SGEDAIDESGSGEE 0
LGLVLILYLCVPRC 0
SLNGTRLAAGSPSS 0
AFSGSYSSGEPSRT 0
EIPVALLILCLCLV 0
FSATTTTTRGRDAH 0
VAENGRNSGASNRV 0
YSSGEPSRTTRIRV 0
VPFSATTTTTRGRD 0
PVALLILCLCLVAC 0
TEIPVALLILCLCL 0
TSASGSGEDAIDES 0
IRVSPVAENGRNSG 0
GSGEDAIDESGSGE 0
GRMNCSYENMTALE 0
LYLCVPRCRRKKPY 0
AAGSPSSEYPNVSV 0
HYNAEIRTHLYILW 0
ASGSGEDAIDESGS 0
GTRLAAGSPSSEYP 0
GLVLILYLCVPRCR 0
RGRDAHYNAEIRTH 0
MSSTQIRTEIPVAL 0
SSEYPNVSVSVEDT 0
SGSYSSGEPSRTTR 0
SPVAENGRNSGASN 0
SNRVPFSATTTTTR 0
EYPNVSVSVEDTSA 0
NVSVSVEDTSASGS 0
LILCLCLVACHANC 0
ACHANCPTYRSHLG 0
LCLVACHANCPTYR 0
PVTSHVTFMTQSVQ 0
PNVSVSVEDTSASG 0
GSYSSGEPSRTTRI 0
TTELTDALISAFSG 0
AHYNAEIRTHLYIL 0
TQIRTEIPVALLIL 0
SATTTTTRGRDAHY 0
SAFSGSYSSGEPSR 0
SEYPNVSVSVEDTS 0
RDAHYNAEIRTHLY 0
SYSSGEPSRTTRIR 0
NRVPFSATTTTTRG 0
CPTYRSHLGFWQEG 0
EPSRTTRIRVSPVA 0
GSPSSEYPNVSVSV 0
NSGASNRVPFSATT 0
SGSGEDAIDESGSG 0
VTSHVTFMTQSVQA 0
VSPVAENGRNSGAS 0
RNSGASNRVPFSAT 0
YLCVPRCRRKKPYI 0
PSSEYPNVSVSVED 0
CLVACHANCPTYRS 0
ENMTALEAVSLNGT 0
DALISAFSGSYSSG 0
RMNCSYENMTALEA 0
SVSVEDTSASGSGE 0
VALLILCLCLVACH 0
LGRMNCSYENMTAL 0
CHANCPTYRSHLGF 0
YNAEIRTHLYILWA 0
LVACHANCPTYRSH 0
NGRNSGASNRVPFS 0
DWLGRMNCSYENMT 0
TTTTRGRDAHYNAE 0
SVEDTSASGSGEDA 0
EDAIDESGSGEEER 0
LCLCLVACHANCPT 0
LAAGSPSSEYPNVS 0
IRTHLYILWAVGLL 0
ATTTTTRGRDAHYN 0
GEDAIDESGSGEEE 0
TRGRDAHYNAEIRT 0
ILYLCVPRCRRKKP 0
EIRTHLYILWAVGL 0
QIRTEIPVALLILC 0
TTTTTRGRDAHYNA 0
SPSSEYPNVSVSVE 0
LNGTRLAAGSPSSE 0
LILYLCVPRCRRKK 0
PFSATTTTTRGRDA 0
SSGEPSRTTRIRVS 0
IRTEIPVALLILCL 0
LISAFSGSYSSGEP 0
YENMTALEAVSLNG 0
STQIRTEIPVALLI 0
ALISAFSGSYSSGE 0
CSYENMTALEAVSL 0
SRTTRIRVSPVAEN 0
SGEPSRTTRIRVSP 0
DTSASGSGEDAIDE 0
VSVEDTSASGSGED 0
SGASNRVPFSATTT 0
ILCLCLVACHANCP 0
ASNRVPFSATTTTT 0
RVPFSATTTTTRGR 0
GRNSGASNRVPFSA 0
AENGRNSGASNRVP 0
SSTQIRTEIPVALL 0
VACHANCPTYRSHL 0
LVLILYLCVPRCRR 0
PTYRSHLGFWQEGW 0
NGTRLAAGSPSSEY 0
ALLILCLCLVACHA 0
SASGSGEDAIDESG 0
GEPSRTTRIRVSPV 0
ENGRNSGASNRVPF 0
CLCLVACHANCPTY 0
VEDTSASGSGEDAI 0
LTDALISAFSGSYS 0
GRDAHYNAEIRTHL 0
QDWLGRMNCSYENM 0
IPVALLILCLCLVA 0
ELTDALISAFSGSY 0
FSGSYSSGEPSRTT 0
TTRGRDAHYNAEIR 0
LCVPRCRRKKPYIV 0
TRIRVSPVAENGRN 0
ANCPTYRSHLGFWQ 0
LLILCLCLVACHAN 0
TTRIRVSPVAENGR 0
YQDWLGRMNCSYEN 0
VSLNGTRLAAGSPS 0
GASNRVPFSATTTT 0
NAEIRTHLYILWAV 0
SYENMTALEAVSLN 0
ERPVTSHVTFMTQS 0
RTEIPVALLILCLC 0
TDALISAFSGSYSS 0
AEIRTHLYILWAVG 0
YPNVSVSVEDTSAS 0
RPVTSHVTFMTQSV 0
TTTRGRDAHYNAEI 0
TELTDALISAFSGS 0
DAHYNAEIRTHLYI 0
WLGRMNCSYENMTA 0
PVAENGRNSGASNR 0
RLAAGSPSSEYPNV 0
PSRTTRIRVSPVAE 0
MNCSYENMTALEAV 0
EDTSASGSGEDAID 0
RTTRIRVSPVAENG 0
TRLAAGSPSSEYPN 0
DAIDESGSGEEERP 0
RLAAGSPSS 1
